 ****** HSPICE -Z-2007.03 32-BIT  (Feb 28 2007) 23:12:08 02/10/2016 pcnt       
  Copyright (C) 2007 Synopsys, Inc. All Rights Reserved.                       
  Unpublished-rights reserved under US copyright laws.
  This program is protected by law and is subject to the 
  terms and conditions of the license agreement found in:
    C:\synopsys\Hspice_Z-2007.03\license.txt
  Use of this program is your acceptance to be bound by this 
  license agreement. HSPICE is the trademark of Synopsys, Inc.
  Input File: f:\major_project\codes\gnrfet\adiabatic_logic\pfal\adders\kogge_st
  lic:  
  lic: FLEXlm: v8.4b 
  lic: USER:   MAHADIKAR M          HOSTNAME: Megaraj 
  lic: HOSTID: "4ae3477af0ef 1ae3477af0ef 28e3477af0ef a01d4811dd4f 080027004899
 "
  lic: Using FLEXlm license file: 
  lic: c:\synopsys\hspice_2007-09.lic 
  lic: Checkout 1 hspice;  Encryption code: AD47C1C891DA5D596A45 
  lic: License/Maintenance for hspice will expire on 31-dec-2020/2007.9 
  lic: NODE LOCKED license on hostid "4ae3477af0ef 1ae3477af0ef 28e3477af0ef a01
 d
  lic:   
 Init: read install configuration file: C:\synopsys\Hspice_Z-2007.03\meta.cfg
  Init: hspice initialization file: C:\synopsys\Hspice_Z-2007.03\hspice.ini     
                                                  
 **warning** (F:\MAJOR_PROJECT\Codes\GNRFET\Adiabatic_logic\PFAL\PFAL_NOT_BUFFER\pfal_not_buf.sp:16) .end must be placed in top level

 .options post
 .options autostop
 .options autostop
 .options ingold=2     dcon=1
 .options ingold=2     dcon=1
 .options gshunt=1e-12 rmin=1e-15 
 .options gshunt=1e-12 rmin=1e-15 
 .options abstol=1e-5  absvdc=1e-4 
 .options abstol=1e-5  absvdc=1e-4 
 .options reltol=1e-2  relvdc=1e-2 
 .options reltol=1e-2  relvdc=1e-2 
 .options numdgt=4     pivot=1
 .options numdgt=4     pivot=1
 *.options trcon=0
 *.options trcon=0

 *library file*
 .lib 'gnrfet.lib' gnrfet

 .global gnd
 .endl gnrfet

 .global gnd
 .param   temp=27
 .param   temp=27
 .include "f:\major_project\codes\gnrfet\adiabatic_logic\pfal\adders\kogge_stone_mod\pfal_kogge_mod.sp"
 .include "f:\major_project\codes\gnrfet\adiabatic_logic\pfal\adders\kogge_stone_mod\pfal_kogge_mod.sp"

 .include "f:\major_project\codes\gnrfet\adiabatic_logic\pfal\pfal_nand_and\pfal_nand_and.sp"

 *********************pfal nand and**************************************
 .subckt pfal_nand_and pwr_clk vin1 vin2 vin1_b vin2_b y_nand y_and 
 xm1p y_and y_nand pwr_clk pwr_clk gnrfetpmos nrib=6 n=12 l=10n tox=0.95n sp=2n dop=0.001 p=0
 xm1p y_and y_nand pwr_clk pwr_clk gnrfetpmos nrib=6 n=12 l=10n tox=0.95n sp=2n dop=0.001 p=0
 xm2p y_nand y_and pwr_clk pwr_clk gnrfetpmos nrib=6 n=12 l=10n tox=0.95n sp=2n dop=0.001 p=0
 xm2p y_nand y_and pwr_clk pwr_clk gnrfetpmos nrib=6 n=12 l=10n tox=0.95n sp=2n dop=0.001 p=0
 xm1n y_and y_nand gnd gnd gnrfetnmos nrib=6 n=12 l=10n tox=0.95n sp=2n dop=0.001 p=0
 xm1n y_and y_nand gnd gnd gnrfetnmos nrib=6 n=12 l=10n tox=0.95n sp=2n dop=0.001 p=0
 xm2n y_nand y_and gnd gnd gnrfetnmos nrib=6 n=12 l=10n tox=0.95n sp=2n dop=0.001 p=0
 xm2n y_nand y_and gnd gnd gnrfetnmos nrib=6 n=12 l=10n tox=0.95n sp=2n dop=0.001 p=0

 xm3n pwr_clk vin1 net1 gnd gnrfetnmos nrib=6 n=12 l=10n tox=0.95n sp=2n dop=0.001 p=0
 xm4n net1 vin2 y_and gnd gnrfetnmos nrib=6 n=12 l=10n tox=0.95n sp=2n dop=0.001 p=0
 xm4n net1 vin2 y_and gnd gnrfetnmos nrib=6 n=12 l=10n tox=0.95n sp=2n dop=0.001 p=0

 xm5n pwr_clk vin1_b y_nand gnd gnrfetnmos nrib=6 n=12 l=10n tox=0.95n sp=2n dop=0.001 p=0
 xm6n pwr_clk vin2_b y_nand gnd gnrfetnmos nrib=6 n=12 l=10n tox=0.95n sp=2n dop=0.001 p=0
 xm6n pwr_clk vin2_b y_nand gnd gnrfetnmos nrib=6 n=12 l=10n tox=0.95n sp=2n dop=0.001 p=0
 .ends pfal_nand_and
 .ends pfal_nand_and
 ************************************************************************

 .include "f:\major_project\codes\gnrfet\adiabatic_logic\pfal\xor_xnor\pfal_xor_xnor.sp"

 .include "f:\major_project\codes\gnrfet\adiabatic_logic\pfal\pfal_not_buffer\pfal_not_buf.sp"
 *************************pfal xor xnor******************************
 .subckt pfal_xor_xnor pwr_clk a b a_b b_b y_xor y_xnor
 xm1p y_xnor y_xor pwr_clk pwr_clk gnrfetpmos nrib=6 n=12 l=10n tox=0.95n sp=2n dop=0.001 p=0
 xm1p y_xnor y_xor pwr_clk pwr_clk gnrfetpmos nrib=6 n=12 l=10n tox=0.95n sp=2n dop=0.001 p=0
 xm2p y_xor y_xnor pwr_clk pwr_clk gnrfetpmos nrib=6 n=12 l=10n tox=0.95n sp=2n dop=0.001 p=0
 xm2p y_xor y_xnor pwr_clk pwr_clk gnrfetpmos nrib=6 n=12 l=10n tox=0.95n sp=2n dop=0.001 p=0
 xm1n y_xnor y_xor gnd gnd gnrfetnmos nrib=6 n=12 l=10n tox=0.95n sp=2n dop=0.001 p=0
 xm1n y_xnor y_xor gnd gnd gnrfetnmos nrib=6 n=12 l=10n tox=0.95n sp=2n dop=0.001 p=0
 xm2n y_xor y_xnor gnd gnd gnrfetnmos nrib=6 n=12 l=10n tox=0.95n sp=2n dop=0.001 p=0
 xm2n y_xor y_xnor gnd gnd gnrfetnmos nrib=6 n=12 l=10n tox=0.95n sp=2n dop=0.001 p=0

 xm3n pwr_clk a net1 gnd gnrfetnmos nrib=6 n=12 l=10n tox=0.95n sp=2n dop=0.001 p=0
 xm4n net1 b_b y_xor gnd gnrfetnmos nrib=6 n=12 l=10n tox=0.95n sp=2n dop=0.001 p=0
 xm4n net1 b_b y_xor gnd gnrfetnmos nrib=6 n=12 l=10n tox=0.95n sp=2n dop=0.001 p=0
 xm5n pwr_clk a_b net2 gnd gnrfetnmos nrib=6 n=12 l=10n tox=0.95n sp=2n dop=0.001 p=0
 xm5n pwr_clk a_b net2 gnd gnrfetnmos nrib=6 n=12 l=10n tox=0.95n sp=2n dop=0.001 p=0
 xm6n net2 b y_xor gnd gnrfetnmos nrib=6 n=12 l=10n tox=0.95n sp=2n dop=0.001 p=0
 xm6n net2 b y_xor gnd gnrfetnmos nrib=6 n=12 l=10n tox=0.95n sp=2n dop=0.001 p=0

 xm7n pwr_clk a net3 gnd gnrfetnmos nrib=6 n=12 l=10n tox=0.95n sp=2n dop=0.001 p=0
 xm8n net3 b y_xnor gnd gnrfetnmos nrib=6 n=12 l=10n tox=0.95n sp=2n dop=0.001 p=0
 xm8n net3 b y_xnor gnd gnrfetnmos nrib=6 n=12 l=10n tox=0.95n sp=2n dop=0.001 p=0
 xm9n pwr_clk a_b net4 gnd gnrfetnmos nrib=6 n=12 l=10n tox=0.95n sp=2n dop=0.001 p=0
 xm9n pwr_clk a_b net4 gnd gnrfetnmos nrib=6 n=12 l=10n tox=0.95n sp=2n dop=0.001 p=0
 xm10n net4 b_b y_xnor gnd gnrfetnmos nrib=6 n=12 l=10n tox=0.95n sp=2n dop=0.001 p=0
 xm10n net4 b_b y_xnor gnd gnrfetnmos nrib=6 n=12 l=10n tox=0.95n sp=2n dop=0.001 p=0
 .ends pfal_xor_xnor
 .ends pfal_xor_xnor

 .include "f:\major_project\codes\gnrfet\adiabatic_logic\pfal\pfal_not_buffer\pfal_not_buf.sp"


 not

  **warning** (F:\MAJOR_PROJECT\Codes\GNRFET\Adiabatic_logic\PFAL\PFAL_NOT_BUFFER\pfal_not_buf.sp:1) 
 *******not gate*******
 .subckt pfal_not_buff clk a ab y_not y_buf
 xm1p y_buf y_not clk clk gnrfetpmos nrib=6 n=12 l=10n tox=0.95n sp=2n dop=0.001 p=0
 xm1p y_buf y_not clk clk gnrfetpmos nrib=6 n=12 l=10n tox=0.95n sp=2n dop=0.001 p=0
 xm2p y_not y_buf clk clk gnrfetpmos nrib=6 n=12 l=10n tox=0.95n sp=2n dop=0.001 p=0
 xm2p y_not y_buf clk clk gnrfetpmos nrib=6 n=12 l=10n tox=0.95n sp=2n dop=0.001 p=0

 xm1n y_buf y_not gnd gnd gnrfetnmos nrib=6 n=12 l=10n tox=0.95n sp=2n dop=0.001 p=0
 xm2n y_not y_buf gnd gnd gnrfetnmos nrib=6 n=12 l=10n tox=0.95n sp=2n dop=0.001 p=0
 xm2n y_not y_buf gnd gnd gnrfetnmos nrib=6 n=12 l=10n tox=0.95n sp=2n dop=0.001 p=0

 xm3n clk ab y_not gnd gnrfetnmos nrib=6 n=12 l=10n tox=0.95n sp=2n dop=0.001 p=0
 xm4n clk a y_buf gnd gnrfetnmos nrib=6 n=12 l=10n tox=0.95n sp=2n dop=0.001 p=0
 xm4n clk a y_buf gnd gnrfetnmos nrib=6 n=12 l=10n tox=0.95n sp=2n dop=0.001 p=0

 .ends pfal_not_buff

 .end



 ******************pfal gen ckt****************************************
 .subckt pfal_gen_ckt pwr_clk g p g_prev g_b p_b g_prev_b g_nxt g_nxt_b
 xm1p g_nxt g_nxt_b pwr_clk pwr_clk gnrfetpmos nrib=6 n=12 l=10n tox=0.95n sp=2n dop=0.001 p=0
 xm1p g_nxt g_nxt_b pwr_clk pwr_clk gnrfetpmos nrib=6 n=12 l=10n tox=0.95n sp=2n dop=0.001 p=0
 xm2p g_nxt_b g_nxt pwr_clk pwr_clk gnrfetpmos nrib=6 n=12 l=10n tox=0.95n sp=2n dop=0.001 p=0
 xm2p g_nxt_b g_nxt pwr_clk pwr_clk gnrfetpmos nrib=6 n=12 l=10n tox=0.95n sp=2n dop=0.001 p=0
 xm1n g_nxt g_nxt_b gnd gnd gnrfetnmos nrib=6 n=12 l=10n tox=0.95n sp=2n dop=0.001 p=0
 xm1n g_nxt g_nxt_b gnd gnd gnrfetnmos nrib=6 n=12 l=10n tox=0.95n sp=2n dop=0.001 p=0
 xm2n g_nxt_b g_nxt gnd gnd gnrfetnmos nrib=6 n=12 l=10n tox=0.95n sp=2n dop=0.001 p=0
 xm2n g_nxt_b g_nxt gnd gnd gnrfetnmos nrib=6 n=12 l=10n tox=0.95n sp=2n dop=0.001 p=0

 xm3n pwr_clk g g_nxt gnd gnrfetnmos nrib=6 n=12 l=10n tox=0.95n sp=2n dop=0.001 p=0
 xm4n pwr_clk p net1 gnd gnrfetnmos nrib=6 n=12 l=10n tox=0.95n sp=2n dop=0.001 p=0
 xm4n pwr_clk p net1 gnd gnrfetnmos nrib=6 n=12 l=10n tox=0.95n sp=2n dop=0.001 p=0
 xm5n net1 g_prev g_nxt gnd gnrfetnmos nrib=6 n=12 l=10n tox=0.95n sp=2n dop=0.001 p=0
 xm5n net1 g_prev g_nxt gnd gnrfetnmos nrib=6 n=12 l=10n tox=0.95n sp=2n dop=0.001 p=0

 xm6n pwr_clk p_b net2 gnd gnrfetnmos nrib=6 n=12 l=10n tox=0.95n sp=2n dop=0.001 p=0
 xm7n pwr_clk g_prev_b net2 gnd gnrfetnmos nrib=6 n=12 l=10n tox=0.95n sp=2n dop=0.001 p=0
 xm7n pwr_clk g_prev_b net2 gnd gnrfetnmos nrib=6 n=12 l=10n tox=0.95n sp=2n dop=0.001 p=0
 xm8n net2 g_b g_nxt_b gnd gnrfetnmos nrib=6 n=12 l=10n tox=0.95n sp=2n dop=0.001 p=0
 xm8n net2 g_b g_nxt_b gnd gnrfetnmos nrib=6 n=12 l=10n tox=0.95n sp=2n dop=0.001 p=0
 .ends pfal_gen_ckt
 .ends pfal_gen_ckt
 **********************************************************************
 **********************************************************************

 ******************ecrl kogge_stone_parallel_adder****************************************
 .subckt pfal_kogge_mod phi1 phi2 phi3 phi4 sel2 a0 a1 a2 a3 a4 a5 a6 a7 b0 b1 b2 b3 b4 b5 b6 b7 cin sel2b a0_b a1_b a2_b a3_b a4_b a5_b a6_b a7_b b0_b b1_b b2_b b3_b b4_b b5_b b6_b b7_b cin_b s0 s1 s2 s3 s4 s5 s6 s7 cout s0_b s1_b s2_b s3_b s4_b s5_b s6_b s7_b cout_b
 ***first stage phi1 clk*************************
 ***first stage phi1 clk*************************
 xxor1 phi1 a0 b0 a0_b b0_b p0 p0_b pfal_xor_xnor
 xxor2 phi1 a1 b1 a1_b b1_b p1 p1_b pfal_xor_xnor
 xxor2 phi1 a1 b1 a1_b b1_b p1 p1_b pfal_xor_xnor
 xxor3 phi1 a2 b2 a2_b b2_b p2 p2_b pfal_xor_xnor
 xxor3 phi1 a2 b2 a2_b b2_b p2 p2_b pfal_xor_xnor
 xxor4 phi1 a3 b3 a3_b b3_b p3 p3_b pfal_xor_xnor
 xxor4 phi1 a3 b3 a3_b b3_b p3 p3_b pfal_xor_xnor
 xxor5 phi1 a4 b4 a4_b b4_b p4 p4_b pfal_xor_xnor
 xxor5 phi1 a4 b4 a4_b b4_b p4 p4_b pfal_xor_xnor
 xxor6 phi1 a5 b5 a5_b b5_b p5 p5_b pfal_xor_xnor
 xxor6 phi1 a5 b5 a5_b b5_b p5 p5_b pfal_xor_xnor
 xxor7 phi1 a6 b6 a6_b b6_b p6 p6_b pfal_xor_xnor
 xxor7 phi1 a6 b6 a6_b b6_b p6 p6_b pfal_xor_xnor
 xxor8 phi1 a7 b7 a7_b b7_b p7 p7_b pfal_xor_xnor
 xxor8 phi1 a7 b7 a7_b b7_b p7 p7_b pfal_xor_xnor

 xand1 phi1 a0 b0 a0_b b0_b g0_b g0 pfal_nand_and
 xand2 phi1 a1 b1 a1_b b1_b g1_b g1 pfal_nand_and
 xand2 phi1 a1 b1 a1_b b1_b g1_b g1 pfal_nand_and
 xand3 phi1 a2 b2 a2_b b2_b g2_b g2 pfal_nand_and
 xand3 phi1 a2 b2 a2_b b2_b g2_b g2 pfal_nand_and
 xand4 phi1 a3 b3 a3_b b3_b g3_b g3 pfal_nand_and
 xand4 phi1 a3 b3 a3_b b3_b g3_b g3 pfal_nand_and
 xand5 phi1 a4 b4 a4_b b4_b g4_b g4 pfal_nand_and
 xand5 phi1 a4 b4 a4_b b4_b g4_b g4 pfal_nand_and
 xand6 phi1 a5 b5 a5_b b5_b g5_b g5 pfal_nand_and
 xand6 phi1 a5 b5 a5_b b5_b g5_b g5 pfal_nand_and
 xand7 phi1 a6 b6 a6_b b6_b g6_b g6 pfal_nand_and
 xand7 phi1 a6 b6 a6_b b6_b g6_b g6 pfal_nand_and
 xand8 phi1 a7 b7 a7_b b7_b g7_b g7 pfal_nand_and
 xand8 phi1 a7 b7 a7_b b7_b g7_b g7 pfal_nand_and

 xinv1 phi1 cin cin_b cin_1_b cin_1 pfal_not_buff
 xinv_buf1 phi1 sel2 sel2b sel21b sel21 pfal_not_buff
 xinv_buf1 phi1 sel2 sel2b sel21b sel21 pfal_not_buff
 ************************************************
 ************************************************

 ***second stage phi2 clk***************************************
 xkgc1 phi2 g0 p0 cin_1 g0_b p0_b cin_1_b c1  c1_b  pfal_gen_ckt
 xkgc2 phi2 g1 p1 g0    g1_b p1_b g0_b    gx1 gx1_b pfal_gen_ckt
 xkgc2 phi2 g1 p1 g0    g1_b p1_b g0_b    gx1 gx1_b pfal_gen_ckt
 xkgc3 phi2 g2 p2 g1    g2_b p2_b g1_b    gx2 gx2_b pfal_gen_ckt
 xkgc3 phi2 g2 p2 g1    g2_b p2_b g1_b    gx2 gx2_b pfal_gen_ckt
 xkgc4 phi2 g3 p3 g2    g3_b p3_b g2_b    gx3 gx3_b pfal_gen_ckt
 xkgc4 phi2 g3 p3 g2    g3_b p3_b g2_b    gx3 gx3_b pfal_gen_ckt
 xkgc5 phi2 g4 p4 g3    g4_b p4_b g3_b    gx4 gx4_b pfal_gen_ckt
 xkgc5 phi2 g4 p4 g3    g4_b p4_b g3_b    gx4 gx4_b pfal_gen_ckt
 xkgc6 phi2 g5 p5 g4    g5_b p5_b g4_b    gx5 gx5_b pfal_gen_ckt
 xkgc6 phi2 g5 p5 g4    g5_b p5_b g4_b    gx5 gx5_b pfal_gen_ckt
 xkgc7 phi2 g6 p6 g5    g6_b p6_b g5_b    gx6 gx6_b pfal_gen_ckt
 xkgc7 phi2 g6 p6 g5    g6_b p6_b g5_b    gx6 gx6_b pfal_gen_ckt
 xkgc8 phi2 g7 p7 g6    g7_b p7_b g6_b    gx7 gx7_b pfal_gen_ckt
 xkgc8 phi2 g7 p7 g6    g7_b p7_b g6_b    gx7 gx7_b pfal_gen_ckt

 xand9  phi2 p1 p0 p1_b p0_b px1_b px1 pfal_nand_and
 xand10 phi2 p2 p1 p2_b p1_b px2_b px2 pfal_nand_and
 xand10 phi2 p2 p1 p2_b p1_b px2_b px2 pfal_nand_and
 xand11 phi2 p3 p2 p3_b p2_b px3_b px3 pfal_nand_and
 xand11 phi2 p3 p2 p3_b p2_b px3_b px3 pfal_nand_and
 xand12 phi2 p4 p3 p4_b p3_b px4_b px4 pfal_nand_and
 xand12 phi2 p4 p3 p4_b p3_b px4_b px4 pfal_nand_and
 xand13 phi2 p5 p4 p5_b p4_b px5_b px5 pfal_nand_and
 xand13 phi2 p5 p4 p5_b p4_b px5_b px5 pfal_nand_and
 xand14 phi2 p6 p5 p6_b p5_b px6_b px6 pfal_nand_and
 xand14 phi2 p6 p5 p6_b p5_b px6_b px6 pfal_nand_and
 xand15 phi2 p7 p6 p7_b p6_b px7_b px7 pfal_nand_and
 xand15 phi2 p7 p6 p7_b p6_b px7_b px7 pfal_nand_and

 xinv2  phi2 cin_1 cin_1_b cin_2_b cin_2 pfal_not_buff
 xinv_buf2 phi2 sel21 sel21b sel22b sel22 pfal_not_buff
 xinv_buf2 phi2 sel21 sel21b sel22b sel22 pfal_not_buff

 xinv3  phi2 p0    p0_b    p0_2_b  p0_2  pfal_not_buff
 xinv4  phi2 p1    p1_b    p1_2_b  p1_2  pfal_not_buff
 xinv4  phi2 p1    p1_b    p1_2_b  p1_2  pfal_not_buff
 xinv5  phi2 p2    p2_b    p2_2_b  p2_2  pfal_not_buff
 xinv5  phi2 p2    p2_b    p2_2_b  p2_2  pfal_not_buff
 xinv6  phi2 p3    p3_b    p3_2_b  p3_2  pfal_not_buff
 xinv6  phi2 p3    p3_b    p3_2_b  p3_2  pfal_not_buff
 xinv7  phi2 p4    p4_b    p4_2_b  p4_2  pfal_not_buff
 xinv7  phi2 p4    p4_b    p4_2_b  p4_2  pfal_not_buff
 xinv8  phi2 p5    p5_b    p5_2_b  p5_2  pfal_not_buff
 xinv8  phi2 p5    p5_b    p5_2_b  p5_2  pfal_not_buff
 xinv9  phi2 p6    p6_b    p6_2_b  p6_2  pfal_not_buff
 xinv9  phi2 p6    p6_b    p6_2_b  p6_2  pfal_not_buff
 xinv10 phi2 p7    p7_b    p7_2_b  p7_2  pfal_not_buff
 xinv10 phi2 p7    p7_b    p7_2_b  p7_2  pfal_not_buff
 ***************************************************************
 ***************************************************************

 ***third stage phi3 clk*********************************************
 xkgc9  phi3 gx1 px1 cin_2 gx1_b px1_b cin_2_b c2  c2_b  pfal_gen_ckt
 xkgc10 phi3 gx2 px2 c1    gx2_b px2_b c1_b    c3  c3_b  pfal_gen_ckt
 xkgc10 phi3 gx2 px2 c1    gx2_b px2_b c1_b    c3  c3_b  pfal_gen_ckt
 xkgc11 phi3 gx3 px3 gx1   gx3_b px3_b gx1_b   gy3 gy3_b pfal_gen_ckt
 xkgc11 phi3 gx3 px3 gx1   gx3_b px3_b gx1_b   gy3 gy3_b pfal_gen_ckt
 xkgc12 phi3 gx4 px4 gx2   gx4_b px4_b gx2_b   gy4 gy4_b pfal_gen_ckt
 xkgc12 phi3 gx4 px4 gx2   gx4_b px4_b gx2_b   gy4 gy4_b pfal_gen_ckt
 xkgc13 phi3 gx5 px5 gx3   gx5_b px5_b gx3_b   gy5 gy5_b pfal_gen_ckt
 xkgc13 phi3 gx5 px5 gx3   gx5_b px5_b gx3_b   gy5 gy5_b pfal_gen_ckt
 xkgc14 phi3 gx6 px6 gx4   gx6_b px6_b gx4_b   gy6 gy6_b pfal_gen_ckt
 xkgc14 phi3 gx6 px6 gx4   gx6_b px6_b gx4_b   gy6 gy6_b pfal_gen_ckt
 xkgc15 phi3 gx7 px7 gx5   gx7_b px7_b gx5_b   gy7 gy7_b pfal_gen_ckt
 xkgc15 phi3 gx7 px7 gx5   gx7_b px7_b gx5_b   gy7 gy7_b pfal_gen_ckt

 xand16 phi3 px3 px1 px3_b px1_b py3_b py3 pfal_nand_and
 xand17 phi3 px4 px2 px4_b px2_b py4_b py4 pfal_nand_and
 xand17 phi3 px4 px2 px4_b px2_b py4_b py4 pfal_nand_and
 xand18 phi3 px5 px3 px5_b px3_b py5_b py5 pfal_nand_and
 xand18 phi3 px5 px3 px5_b px3_b py5_b py5 pfal_nand_and
 xand19 phi3 px6 px4 px6_b px4_b py6_b py6 pfal_nand_and
 xand19 phi3 px6 px4 px6_b px4_b py6_b py6 pfal_nand_and
 xand20 phi3 px7 px5 px7_b px5_b py7_b py7 pfal_nand_and
 xand20 phi3 px7 px5 px7_b px5_b py7_b py7 pfal_nand_and

 xinv11 phi3 cin_2 cin_2_b cin_3_b cin_3 pfal_not_buff
 xinv12 phi3 c1    c1_b    c1_3_b  c1_3  pfal_not_buff
 xinv12 phi3 c1    c1_b    c1_3_b  c1_3  pfal_not_buff
 xinv_buf3 phi3 sel22 sel22b sel23b sel23 pfal_not_buff
 xinv_buf3 phi3 sel22 sel22b sel23b sel23 pfal_not_buff

 xinv13 phi3 p0_2  p0_2_b  p0_3_b  p0_3  pfal_not_buff
 xinv14 phi3 p1_2  p1_2_b  p1_3_b  p1_3  pfal_not_buff
 xinv14 phi3 p1_2  p1_2_b  p1_3_b  p1_3  pfal_not_buff
 xinv15 phi3 p2_2  p2_2_b  p2_3_b  p2_3  pfal_not_buff
 xinv15 phi3 p2_2  p2_2_b  p2_3_b  p2_3  pfal_not_buff
 xinv16 phi3 p3_2  p3_2_b  p3_3_b  p3_3  pfal_not_buff
 xinv16 phi3 p3_2  p3_2_b  p3_3_b  p3_3  pfal_not_buff
 xinv17 phi3 p4_2  p4_2_b  p4_3_b  p4_3  pfal_not_buff
 xinv17 phi3 p4_2  p4_2_b  p4_3_b  p4_3  pfal_not_buff
 xinv18 phi3 p5_2  p5_2_b  p5_3_b  p5_3  pfal_not_buff
 xinv18 phi3 p5_2  p5_2_b  p5_3_b  p5_3  pfal_not_buff
 xinv19 phi3 p6_2  p6_2_b  p6_3_b  p6_3  pfal_not_buff
 xinv19 phi3 p6_2  p6_2_b  p6_3_b  p6_3  pfal_not_buff
 xinv20 phi3 p7_2  p7_2_b  p7_3_b  p7_3  pfal_not_buff
 xinv20 phi3 p7_2  p7_2_b  p7_3_b  p7_3  pfal_not_buff
 ********************************************************************
 ********************************************************************

 ***fourth stage phi4 clk********************************************
 xkgc16 phi4 gy3 py3 cin_3 gy3_b py3_b cin_3_b c4  c4_b  pfal_gen_ckt
 xkgc17 phi4 gy4 py4 c1_3  gy4_b py4_b c1_3_b  c5  c5_b  pfal_gen_ckt
 xkgc17 phi4 gy4 py4 c1_3  gy4_b py4_b c1_3_b  c5  c5_b  pfal_gen_ckt
 xkgc18 phi4 gy5 py5 c2    gy5_b py5_b c2_b    c6  c6_b  pfal_gen_ckt
 xkgc18 phi4 gy5 py5 c2    gy5_b py5_b c2_b    c6  c6_b  pfal_gen_ckt
 xkgc19 phi4 gy6 py6 c3    gy6_b py6_b c3_b    c7  c7_b  pfal_gen_ckt
 xkgc19 phi4 gy6 py6 c3    gy6_b py6_b c3_b    c7  c7_b  pfal_gen_ckt
 xkgc20 phi4 gy7 py7 gy3   gy7_b py7_b gy3_b   gz7 gz7_b pfal_gen_ckt
 xkgc20 phi4 gy7 py7 gy3   gy7_b py7_b gy3_b   gz7 gz7_b pfal_gen_ckt

 xand21 phi4 py7 py3 py7_b py3_b pz7_b pz7 pfal_nand_and 

 xinv21 phi4 cin_3 cin_3_b cin_4_b cin_4 pfal_not_buff

 xinv21 phi4 cin_3 cin_3_b cin_4_b cin_4 pfal_not_buff
 xinv22 phi4 c1_3  c1_3_b  c1_4_b  c1_4  pfal_not_buff
 xinv22 phi4 c1_3  c1_3_b  c1_4_b  c1_4  pfal_not_buff
 xinv23 phi4 c2    c2_b    c2_4_b  c2_4  pfal_not_buff
 xinv23 phi4 c2    c2_b    c2_4_b  c2_4  pfal_not_buff
 xinv24 phi4 c3    c3_b    c3_4_b  c3_4  pfal_not_buff
 xinv24 phi4 c3    c3_b    c3_4_b  c3_4  pfal_not_buff
 xinv_buf4 phi4 sel23 sel23b sel24b sel24 pfal_not_buff
 xinv_buf4 phi4 sel23 sel23b sel24b sel24 pfal_not_buff

 xinv25 phi4 p0_3  p0_3_b  p0_4_b  p0_4  pfal_not_buff
 xinv26 phi4 p1_3  p1_3_b  p1_4_b  p1_4  pfal_not_buff
 xinv26 phi4 p1_3  p1_3_b  p1_4_b  p1_4  pfal_not_buff
 xinv27 phi4 p2_3  p2_3_b  p2_4_b  p2_4  pfal_not_buff
 xinv27 phi4 p2_3  p2_3_b  p2_4_b  p2_4  pfal_not_buff
 xinv28 phi4 p3_3  p3_3_b  p3_4_b  p3_4  pfal_not_buff
 xinv28 phi4 p3_3  p3_3_b  p3_4_b  p3_4  pfal_not_buff
 xinv29 phi4 p4_3  p4_3_b  p4_4_b  p4_4  pfal_not_buff
 xinv29 phi4 p4_3  p4_3_b  p4_4_b  p4_4  pfal_not_buff
 xinv30 phi4 p5_3  p5_3_b  p5_4_b  p5_4  pfal_not_buff
 xinv30 phi4 p5_3  p5_3_b  p5_4_b  p5_4  pfal_not_buff
 xinv31 phi4 p6_3  p6_3_b  p6_4_b  p6_4  pfal_not_buff
 xinv31 phi4 p6_3  p6_3_b  p6_4_b  p6_4  pfal_not_buff
 xinv32 phi4 p7_3  p7_3_b  p7_4_b  p7_4  pfal_not_buff
 xinv32 phi4 p7_3  p7_3_b  p7_4_b  p7_4  pfal_not_buff
 ********************************************************************
 ********************************************************************

 ***fifth stage phi5 clk***********************************************
 xkgc21 phi1 gz7 pz7 cin_4 gz7_b pz7_b cin_4_b cout5 cout5_b pfal_gen_ckt
 xand22 phi1 sel24b cin_4 sel24 cin_4_b cin5b cin5 pfal_nand_and
 xand22 phi1 sel24b cin_4 sel24 cin_4_b cin5b cin5 pfal_nand_and
 xand23 phi1 sel24b c1_4 sel24 c1_4_b c15b c15 pfal_nand_and
 xand23 phi1 sel24b c1_4 sel24 c1_4_b c15b c15 pfal_nand_and
 xand24 phi1 sel24b c2_4 sel24 c2_4_b c25b c25 pfal_nand_and
 xand24 phi1 sel24b c2_4 sel24 c2_4_b c25b c25 pfal_nand_and
 xand25 phi1 sel24b c3_4 sel24 c3_4_b c35b c35 pfal_nand_and
 xand25 phi1 sel24b c3_4 sel24 c3_4_b c35b c35 pfal_nand_and
 xand26 phi1 sel24b c4 sel24 c4_b c45b c45 pfal_nand_and
 xand26 phi1 sel24b c4 sel24 c4_b c45b c45 pfal_nand_and
 xand27 phi1 sel24b c5 sel24 c5_b c55b c55 pfal_nand_and
 xand27 phi1 sel24b c5 sel24 c5_b c55b c55 pfal_nand_and
 xand28 phi1 sel24b c6 sel24 c6_b c65b c65 pfal_nand_and
 xand28 phi1 sel24b c6 sel24 c6_b c65b c65 pfal_nand_and
 xand29 phi1 sel24b c7 sel24 c7_b c75b c75 pfal_nand_and
 xand29 phi1 sel24b c7 sel24 c7_b c75b c75 pfal_nand_and

 xinv33 phi1 p0_4  p0_4_b  p0_5_b  p0_5  pfal_not_buff
 xinv34 phi1 p1_4  p1_4_b  p1_5_b  p1_5  pfal_not_buff
 xinv34 phi1 p1_4  p1_4_b  p1_5_b  p1_5  pfal_not_buff
 xinv35 phi1 p2_4  p2_4_b  p2_5_b  p2_5  pfal_not_buff
 xinv35 phi1 p2_4  p2_4_b  p2_5_b  p2_5  pfal_not_buff
 xinv36 phi1 p3_4  p3_4_b  p3_5_b  p3_5  pfal_not_buff
 xinv36 phi1 p3_4  p3_4_b  p3_5_b  p3_5  pfal_not_buff
 xinv37 phi1 p4_4  p4_4_b  p4_5_b  p4_5  pfal_not_buff
 xinv37 phi1 p4_4  p4_4_b  p4_5_b  p4_5  pfal_not_buff
 xinv38 phi1 p5_4  p5_4_b  p5_5_b  p5_5  pfal_not_buff
 xinv38 phi1 p5_4  p5_4_b  p5_5_b  p5_5  pfal_not_buff
 xinv39 phi1 p6_4  p6_4_b  p6_5_b  p6_5  pfal_not_buff
 xinv39 phi1 p6_4  p6_4_b  p6_5_b  p6_5  pfal_not_buff
 xinv40 phi1 p7_4  p7_4_b  p7_5_b  p7_5  pfal_not_buff
 xinv40 phi1 p7_4  p7_4_b  p7_5_b  p7_5  pfal_not_buff
 ***********************************************************************
 ***********************************************************************

 ***sixth stage phi6 clk***********************************************
 xxor9  phi2 p0_5 cin5 p0_5_b cin5b s0 s0_b pfal_xor_xnor
 xxor10 phi2 p1_5 c15  p1_5_b c15b s1 s1_b pfal_xor_xnor
 xxor10 phi2 p1_5 c15  p1_5_b c15b s1 s1_b pfal_xor_xnor
 xxor11 phi2 p2_5 c25  p2_5_b c25b s2 s2_b pfal_xor_xnor
 xxor11 phi2 p2_5 c25  p2_5_b c25b s2 s2_b pfal_xor_xnor
 xxor12 phi2 p3_5 c35  p3_5_b c35b s3 s3_b pfal_xor_xnor
 xxor12 phi2 p3_5 c35  p3_5_b c35b s3 s3_b pfal_xor_xnor
 xxor13 phi2 p4_5 c45  p4_5_b c45b s4 s4_b pfal_xor_xnor
 xxor13 phi2 p4_5 c45  p4_5_b c45b s4 s4_b pfal_xor_xnor
 xxor14 phi2 p5_5 c55  p5_5_b c55b s5 s5_b pfal_xor_xnor
 xxor14 phi2 p5_5 c55  p5_5_b c55b s5 s5_b pfal_xor_xnor
 xxor15 phi2 p6_5 c65  p6_5_b c65b s6 s6_b pfal_xor_xnor
 xxor15 phi2 p6_5 c65  p6_5_b c65b s6 s6_b pfal_xor_xnor
 xxor16 phi2 p7_5 c75  p7_5_b c75b s7 s7_b pfal_xor_xnor
 xxor16 phi2 p7_5 c75  p7_5_b c75b s7 s7_b pfal_xor_xnor
 xinv41 phi2 cout5  cout5_b  cout_b  cout  pfal_not_buff
 xinv41 phi2 cout5  cout5_b  cout_b  cout  pfal_not_buff
 **********************************************************************
 **********************************************************************

 .ends pfal_kogge_mod

 vclk1 vclk1 0 pulse 0 .5 1n 1n 1n 2n 6.0n
 vclk2 vclk2 0 pulse 0 .5 2.5n 1n 1n 2n 6.0n
 vclk2 vclk2 0 pulse 0 .5 2.5n 1n 1n 2n 6.0n
 vclk3 vclk3 0 pulse 0 0.5 4n 1n 1n 2n 6.0n
 vclk3 vclk3 0 pulse 0 0.5 4n 1n 1n 2n 6.0n
 vclk4 vclk4 0 pulse 0 0.5 5.5n 1n 1n 2n 6.0n
 vclk4 vclk4 0 pulse 0 0.5 5.5n 1n 1n 2n 6.0n


 vs2 vs2 gnd pat (.5 0 0 0.01n 0.01n 3n b10101010100000000000 r=3)
 vs2b vs2b gnd pat (.5 0 0 0.01n 0.01n 3n b00000000001010101010 r=3)
 vs2b vs2b gnd pat (.5 0 0 0.01n 0.01n 3n b00000000001010101010 r=3)

 va0 va0 gnd pat (.5 0 0 0.01n 0.01n 3n b1000100010 r=5) 
 va0b va0b gnd pat (.5 0 0 0.01n 0.01n 3n b0010001000 r=5)
 va0b va0b gnd pat (.5 0 0 0.01n 0.01n 3n b0010001000 r=5)
 va1 va1 gnd pat (.5 0 0 0.01n 0.01n 3n b1000100010 r=5) 
 va1 va1 gnd pat (.5 0 0 0.01n 0.01n 3n b1000100010 r=5) 
 va1b va1b gnd pat (.5 0 0 0.01n 0.01n 3n b0010001000 r=5)
 va1b va1b gnd pat (.5 0 0 0.01n 0.01n 3n b0010001000 r=5)
 va2 va2 gnd pat (.5 0 0 0.01n 0.01n 3n b1000100010 r=5) 
 va2 va2 gnd pat (.5 0 0 0.01n 0.01n 3n b1000100010 r=5) 
 va2b va2b gnd pat (.5 0 0 0.01n 0.01n 3n b0010001000 r=5)
 va2b va2b gnd pat (.5 0 0 0.01n 0.01n 3n b0010001000 r=5)
 va3 va3 gnd pat (.5 0 0 0.01n 0.01n 3n b1000100010 r=5) 
 va3 va3 gnd pat (.5 0 0 0.01n 0.01n 3n b1000100010 r=5) 
 va3b va3b gnd pat (.5 0 0 0.01n 0.01n 3n b0010001000 r=5)
 va3b va3b gnd pat (.5 0 0 0.01n 0.01n 3n b0010001000 r=5)
 va4 va4 gnd pat (.5 0 0 0.01n 0.01n 3n b1000100010 r=5) 
 va4 va4 gnd pat (.5 0 0 0.01n 0.01n 3n b1000100010 r=5) 
 va4b va4b gnd pat (.5 0 0 0.01n 0.01n 3n b0010001000 r=5)
 va4b va4b gnd pat (.5 0 0 0.01n 0.01n 3n b0010001000 r=5)
 va5 va5 gnd pat (.5 0 0 0.01n 0.01n 3n b1000100010 r=5) 
 va5 va5 gnd pat (.5 0 0 0.01n 0.01n 3n b1000100010 r=5) 
 va5b va5b gnd pat (.5 0 0 0.01n 0.01n 3n b0010001000 r=5)
 va5b va5b gnd pat (.5 0 0 0.01n 0.01n 3n b0010001000 r=5)
 va6 va6 gnd pat (.5 0 0 0.01n 0.01n 3n b1000100010 r=5) 
 va6 va6 gnd pat (.5 0 0 0.01n 0.01n 3n b1000100010 r=5) 
 va6b va6b gnd pat (.5 0 0 0.01n 0.01n 3n b0010001000 r=5)
 va6b va6b gnd pat (.5 0 0 0.01n 0.01n 3n b0010001000 r=5)
 va7 va7 gnd pat (.5 0 0 0.01n 0.01n 3n b1000100010 r=5) 
 va7 va7 gnd pat (.5 0 0 0.01n 0.01n 3n b1000100010 r=5) 
 va7b va7b gnd pat (.5 0 0 0.01n 0.01n 3n b0010001000 r=5)
 va7b va7b gnd pat (.5 0 0 0.01n 0.01n 3n b0010001000 r=5)

 vb0 vb0 gnd pat (.5 0 0 0.01n 0.01n 3n b0000101010 r=5) 
 vb0b vb0b gnd pat (.5 0 0 0.01n 0.01n 3n b1010000000 r=5) 
 vb0b vb0b gnd pat (.5 0 0 0.01n 0.01n 3n b1010000000 r=5) 
 vb1 vb1 gnd pat (.5 0 0 0.01n 0.01n 3n b0000101010 r=5) 
 vb1 vb1 gnd pat (.5 0 0 0.01n 0.01n 3n b0000101010 r=5) 
 vb1b vb1b gnd pat (.5 0 0 0.01n 0.01n 3n b1010000000 r=5) 
 vb1b vb1b gnd pat (.5 0 0 0.01n 0.01n 3n b1010000000 r=5) 
 vb2 vb2 gnd pat (.5 0 0 0.01n 0.01n 3n b0000101010 r=5) 
 vb2 vb2 gnd pat (.5 0 0 0.01n 0.01n 3n b0000101010 r=5) 
 vb2b vb2b gnd pat (.5 0 0 0.01n 0.01n 3n b1010000000 r=5) 
 vb2b vb2b gnd pat (.5 0 0 0.01n 0.01n 3n b1010000000 r=5) 
 vb3 vb3 gnd pat (.5 0 0 0.01n 0.01n 3n b0000101010 r=5) 
 vb3 vb3 gnd pat (.5 0 0 0.01n 0.01n 3n b0000101010 r=5) 
 vb3b vb3b gnd pat (.5 0 0 0.01n 0.01n 3n b1010000000 r=5) 
 vb3b vb3b gnd pat (.5 0 0 0.01n 0.01n 3n b1010000000 r=5) 
 vb4 vb4 gnd pat (.5 0 0 0.01n 0.01n 3n b0000101010 r=5) 
 vb4 vb4 gnd pat (.5 0 0 0.01n 0.01n 3n b0000101010 r=5) 
 vb4b vb4b gnd pat (.5 0 0 0.01n 0.01n 3n b1010000000 r=5) 
 vb4b vb4b gnd pat (.5 0 0 0.01n 0.01n 3n b1010000000 r=5) 
 vb5 vb5 gnd pat (.5 0 0 0.01n 0.01n 3n b0000101010 r=5) 
 vb5 vb5 gnd pat (.5 0 0 0.01n 0.01n 3n b0000101010 r=5) 
 vb5b vb5b gnd pat (.5 0 0 0.01n 0.01n 3n b1010000000 r=5) 
 vb5b vb5b gnd pat (.5 0 0 0.01n 0.01n 3n b1010000000 r=5) 
 vb6 vb6 gnd pat (.5 0 0 0.01n 0.01n 3n b0000101010 r=5) 
 vb6 vb6 gnd pat (.5 0 0 0.01n 0.01n 3n b0000101010 r=5) 
 vb6b vb6b gnd pat (.5 0 0 0.01n 0.01n 3n b1010000000 r=5) 
 vb6b vb6b gnd pat (.5 0 0 0.01n 0.01n 3n b1010000000 r=5) 
 vb7 vb7 gnd pat (.5 0 0 0.01n 0.01n 3n b0000101010 r=5) 
 vb7 vb7 gnd pat (.5 0 0 0.01n 0.01n 3n b0000101010 r=5) 
 vb7b vb7b gnd pat (.5 0 0 0.01n 0.01n 3n b1010000000 r=5) 
 vb7b vb7b gnd pat (.5 0 0 0.01n 0.01n 3n b1010000000 r=5) 


 vcin vcin gnd pat (.5 0 0 0.01n 0.01n 3n b0010001000 r=5) 
 vcinb vcinb gnd pat (.5 0 0 0.01n 0.01n 3n b1000100010 r=5)
 vcinb vcinb gnd pat (.5 0 0 0.01n 0.01n 3n b1000100010 r=5)

 *********instantiating***********
 xrca1 vclk1 vclk2 vclk3 vclk4 vs2 va0 va1 va2 va3 va4 va5 va6 va7 vb0 vb1 vb2 vb3 vb4 vb5 vb6 vb7 vcin vs2b va0b va1b va2b va3b va4b va5b va6b va7b vb0b vb1b vb2b vb3b vb4b vb5b vb6b vb7b vcinb s0 s1 s2 s3 s4 s5 s6 s7 cout s0_b s1_b s2_b s3_b s4_b s5_b s6_b s7_b cout_b pfal_kogge_mod

 * transient analysis *

 * transient analysis *
 .op
 .tran 1n 50n
 .tran 1n 50n
 ************total power calculation(op =high)*****************
 ************total power calculation(op =high)*****************
 .meas tran itotal1 avg i(vclk1) from=8ns to=50ns
 .meas tran vtotal1 avg v(vclk1) from=8ns to=50ns
 .meas tran vtotal1 avg v(vclk1) from=8ns to=50ns
 .meas etotal1 param='vtotal1*itotal1'
 .meas etotal1 param='vtotal1*itotal1'
 .meas tran p_avg1 avg p(vclk1) from=8n to=50n
 .meas tran p_avg1 avg p(vclk1) from=8n to=50n
 ************************************************** ********
 ************************************************** ********
 ************total power calculation(op =high)*****************
 .meas tran itotal2 avg i(vclk2) from=8ns to=50ns
 .meas tran vtotal2 avg v(vclk2) from=8ns to=50ns
 .meas tran vtotal2 avg v(vclk2) from=8ns to=50ns
 .meas etotal2 param='vtotal2*itotal2'
 .meas etotal2 param='vtotal2*itotal2'
 .meas tran p_avg2 avg p(vclk2) from=8n to=50n
 .meas tran p_avg2 avg p(vclk2) from=8n to=50n
 ************************************************** ********
 ************************************************** ********
 ************total power calculation(op =high)*****************
 .meas tran itotal3 avg i(vclk3) from=8ns to=50ns
 .meas tran vtotal3 avg v(vclk3) from=8ns to=50ns
 .meas tran vtotal3 avg v(vclk3) from=8ns to=50ns
 .meas etotal3 param='vtotal3*itotal3'
 .meas etotal3 param='vtotal3*itotal3'
 .meas tran p_avg3 avg p(vclk3) from=8n to=50n
 .meas tran p_avg3 avg p(vclk3) from=8n to=50n
 ************************************************** ********
 ************************************************** ********
 ************total power calculation(op =high)*****************
 .meas tran itotal4 avg i(vclk4) from=8ns to=50ns
 .meas tran vtotal4 avg v(vclk4) from=8ns to=50ns
 .meas tran vtotal4 avg v(vclk4) from=8ns to=50ns
 .meas etotal4 param='vtotal4*itotal4'
 .meas etotal4 param='vtotal4*itotal4'
 .meas tran p_avg4 avg p(vclk4) from=8n to=50n
 .meas tran p_avg4 avg p(vclk4) from=8n to=50n
 ************************************************** ********
 ************************************************** ********
 .meas etotal param = 'etotal1+etotal2+etotal3+etotal4'
 .end 
 .end 

1 ****** HSPICE -Z-2007.03 32-BIT  (Feb 28 2007) 23:12:08 02/10/2016 pcnt       
 ******  
  init                                                                         
  ******  circuit name directory                                               
 ******  
 circuit number to circuit name directory
   number circuitname                     definition         multiplier
        0 main circuit
        1 xrca1.                          pfal_kogge_mod     1.00 
        2 xrca1.xxor1.                    pfal_xor_xnor      1.00 
        3 xrca1.xxor2.                    pfal_xor_xnor      1.00 
        4 xrca1.xxor3.                    pfal_xor_xnor      1.00 
        5 xrca1.xxor4.                    pfal_xor_xnor      1.00 
        6 xrca1.xxor5.                    pfal_xor_xnor      1.00 
        7 xrca1.xxor6.                    pfal_xor_xnor      1.00 
        8 xrca1.xxor7.                    pfal_xor_xnor      1.00 
        9 xrca1.xxor8.                    pfal_xor_xnor      1.00 
       10 xrca1.xand1.                    pfal_nand_and      1.00 
       11 xrca1.xand2.                    pfal_nand_and      1.00 
       12 xrca1.xand3.                    pfal_nand_and      1.00 
       13 xrca1.xand4.                    pfal_nand_and      1.00 
       14 xrca1.xand5.                    pfal_nand_and      1.00 
       15 xrca1.xand6.                    pfal_nand_and      1.00 
       16 xrca1.xand7.                    pfal_nand_and      1.00 
       17 xrca1.xand8.                    pfal_nand_and      1.00 
       18 xrca1.xinv1.                    pfal_not_buff      1.00 
       19 xrca1.xinv_buf1.                pfal_not_buff      1.00 
       20 xrca1.xkgc1.                    pfal_gen_ckt       1.00 
       21 xrca1.xkgc2.                    pfal_gen_ckt       1.00 
       22 xrca1.xkgc3.                    pfal_gen_ckt       1.00 
       23 xrca1.xkgc4.                    pfal_gen_ckt       1.00 
       24 xrca1.xkgc5.                    pfal_gen_ckt       1.00 
       25 xrca1.xkgc6.                    pfal_gen_ckt       1.00 
       26 xrca1.xkgc7.                    pfal_gen_ckt       1.00 
       27 xrca1.xkgc8.                    pfal_gen_ckt       1.00 
       28 xrca1.xand9.                    pfal_nand_and      1.00 
       29 xrca1.xand10.                   pfal_nand_and      1.00 
       30 xrca1.xand11.                   pfal_nand_and      1.00 
       31 xrca1.xand12.                   pfal_nand_and      1.00 
       32 xrca1.xand13.                   pfal_nand_and      1.00 
       33 xrca1.xand14.                   pfal_nand_and      1.00 
       34 xrca1.xand15.                   pfal_nand_and      1.00 
       35 xrca1.xinv2.                    pfal_not_buff      1.00 
       36 xrca1.xinv_buf2.                pfal_not_buff      1.00 
       37 xrca1.xinv3.                    pfal_not_buff      1.00 
       38 xrca1.xinv4.                    pfal_not_buff      1.00 
       39 xrca1.xinv5.                    pfal_not_buff      1.00 
       40 xrca1.xinv6.                    pfal_not_buff      1.00 
       41 xrca1.xinv7.                    pfal_not_buff      1.00 
       42 xrca1.xinv8.                    pfal_not_buff      1.00 
       43 xrca1.xinv9.                    pfal_not_buff      1.00 
       44 xrca1.xinv10.                   pfal_not_buff      1.00 
       45 xrca1.xkgc9.                    pfal_gen_ckt       1.00 
       46 xrca1.xkgc10.                   pfal_gen_ckt       1.00 
       47 xrca1.xkgc11.                   pfal_gen_ckt       1.00 
       48 xrca1.xkgc12.                   pfal_gen_ckt       1.00 
       49 xrca1.xkgc13.                   pfal_gen_ckt       1.00 
       50 xrca1.xkgc14.                   pfal_gen_ckt       1.00 
       51 xrca1.xkgc15.                   pfal_gen_ckt       1.00 
       52 xrca1.xand16.                   pfal_nand_and      1.00 
       53 xrca1.xand17.                   pfal_nand_and      1.00 
       54 xrca1.xand18.                   pfal_nand_and      1.00 
       55 xrca1.xand19.                   pfal_nand_and      1.00 
       56 xrca1.xand20.                   pfal_nand_and      1.00 
       57 xrca1.xinv11.                   pfal_not_buff      1.00 
       58 xrca1.xinv12.                   pfal_not_buff      1.00 
       59 xrca1.xinv_buf3.                pfal_not_buff      1.00 
       60 xrca1.xinv13.                   pfal_not_buff      1.00 
       61 xrca1.xinv14.                   pfal_not_buff      1.00 
       62 xrca1.xinv15.                   pfal_not_buff      1.00 
       63 xrca1.xinv16.                   pfal_not_buff      1.00 
       64 xrca1.xinv17.                   pfal_not_buff      1.00 
       65 xrca1.xinv18.                   pfal_not_buff      1.00 
       66 xrca1.xinv19.                   pfal_not_buff      1.00 
       67 xrca1.xinv20.                   pfal_not_buff      1.00 
       68 xrca1.xkgc16.                   pfal_gen_ckt       1.00 
       69 xrca1.xkgc17.                   pfal_gen_ckt       1.00 
       70 xrca1.xkgc18.                   pfal_gen_ckt       1.00 
       71 xrca1.xkgc19.                   pfal_gen_ckt       1.00 
       72 xrca1.xkgc20.                   pfal_gen_ckt       1.00 
       73 xrca1.xand21.                   pfal_nand_and      1.00 
       74 xrca1.xinv21.                   pfal_not_buff      1.00 
       75 xrca1.xinv22.                   pfal_not_buff      1.00 
       76 xrca1.xinv23.                   pfal_not_buff      1.00 
       77 xrca1.xinv24.                   pfal_not_buff      1.00 
       78 xrca1.xinv_buf4.                pfal_not_buff      1.00 
       79 xrca1.xinv25.                   pfal_not_buff      1.00 
       80 xrca1.xinv26.                   pfal_not_buff      1.00 
       81 xrca1.xinv27.                   pfal_not_buff      1.00 
       82 xrca1.xinv28.                   pfal_not_buff      1.00 
       83 xrca1.xinv29.                   pfal_not_buff      1.00 
       84 xrca1.xinv30.                   pfal_not_buff      1.00 
       85 xrca1.xinv31.                   pfal_not_buff      1.00 
       86 xrca1.xinv32.                   pfal_not_buff      1.00 
       87 xrca1.xkgc21.                   pfal_gen_ckt       1.00 
       88 xrca1.xand22.                   pfal_nand_and      1.00 
       89 xrca1.xand23.                   pfal_nand_and      1.00 
       90 xrca1.xand24.                   pfal_nand_and      1.00 
       91 xrca1.xand25.                   pfal_nand_and      1.00 
       92 xrca1.xand26.                   pfal_nand_and      1.00 
       93 xrca1.xand27.                   pfal_nand_and      1.00 
       94 xrca1.xand28.                   pfal_nand_and      1.00 
       95 xrca1.xand29.                   pfal_nand_and      1.00 
       96 xrca1.xinv33.                   pfal_not_buff      1.00 
       97 xrca1.xinv34.                   pfal_not_buff      1.00 
       98 xrca1.xinv35.                   pfal_not_buff      1.00 
       99 xrca1.xinv36.                   pfal_not_buff      1.00 
      100 xrca1.xinv37.                   pfal_not_buff      1.00 
      101 xrca1.xinv38.                   pfal_not_buff      1.00 
      102 xrca1.xinv39.                   pfal_not_buff      1.00 
      103 xrca1.xinv40.                   pfal_not_buff      1.00 
      104 xrca1.xxor9.                    pfal_xor_xnor      1.00 
      105 xrca1.xxor10.                   pfal_xor_xnor      1.00 
      106 xrca1.xxor11.                   pfal_xor_xnor      1.00 
      107 xrca1.xxor12.                   pfal_xor_xnor      1.00 
      108 xrca1.xxor13.                   pfal_xor_xnor      1.00 
      109 xrca1.xxor14.                   pfal_xor_xnor      1.00 
      110 xrca1.xxor15.                   pfal_xor_xnor      1.00 
      111 xrca1.xxor16.                   pfal_xor_xnor      1.00 
      112 xrca1.xinv41.                   pfal_not_buff      1.00 

 **warning** dc voltage reset to initial transient source value
             in source        0:vclk1               new dc=  0.0000D+00


 **warning** dc voltage reset to initial transient source value
             in source        0:vclk2               new dc=  0.0000D+00


 **warning** dc voltage reset to initial transient source value
             in source        0:vclk3               new dc=  0.0000D+00


 **warning** dc voltage reset to initial transient source value
             in source        0:vclk4               new dc=  0.0000D+00

  Opening plot unit= 79
 file=f:\major_project\codes\gnrfet\adiabatic_logic\pfal\adders\kogge_stone_mod

1 ****** HSPICE -Z-2007.03 32-BIT  (Feb 28 2007) 23:12:08 02/10/2016 pcnt       
 ******  
  init                                                                         
  ******  operating point information      tnom=  25.000 temp=  25.000         
 ******  
 ***** operating point status is all       simulation time is     0.     
       node    =voltage         node    =voltage         node    =voltage

 +   0:cout    = 1.057e-10    0:cout_b  = 1.050e-10    0:s0      = 3.160e-10
 +   0:s0_b    = 3.161e-10    0:s1      = 3.165e-10    0:s1_b    = 3.164e-10
 +   0:s2      = 3.156e-10    0:s2_b    = 3.166e-10    0:s3      = 3.161e-10
 +   0:s3_b    = 3.159e-10    0:s4      = 3.166e-10    0:s4_b    = 3.161e-10
 +   0:s5      = 3.163e-10    0:s5_b    = 3.161e-10    0:s6      = 3.158e-10
 +   0:s6_b    = 3.164e-10    0:s7      = 3.158e-10    0:s7_b    = 3.161e-10
 +   0:va0     = 5.000e-01    0:va0b    =   0.         0:va1     = 5.000e-01
 +   0:va1b    =   0.         0:va2     = 5.000e-01    0:va2b    =   0.     
 +   0:va3     = 5.000e-01    0:va3b    =   0.         0:va4     = 5.000e-01
 +   0:va4b    =   0.         0:va5     = 5.000e-01    0:va5b    =   0.     
 +   0:va6     = 5.000e-01    0:va6b    =   0.         0:va7     = 5.000e-01
 +   0:va7b    =   0.         0:vb0     =   0.         0:vb0b    = 5.000e-01
 +   0:vb1     =   0.         0:vb1b    = 5.000e-01    0:vb2     =   0.     
 +   0:vb2b    = 5.000e-01    0:vb3     =   0.         0:vb3b    = 5.000e-01
 +   0:vb4     =   0.         0:vb4b    = 5.000e-01    0:vb5     =   0.     
 +   0:vb5b    = 5.000e-01    0:vb6     =   0.         0:vb6b    = 5.000e-01
 +   0:vb7     =   0.         0:vb7b    = 5.000e-01    0:vcin    =   0.     
 +   0:vcinb   = 5.000e-01    0:vclk1   =   0.         0:vclk2   =   0.     
 +   0:vclk3   =   0.         0:vclk4   =   0.         0:vs2     = 5.000e-01
 +   0:vs2b    =   0.         1:c1      = 1.809e-10    1:c15     = 2.529e-10
 +   1:c15b    = 7.897e-11    1:c1_3    = 1.054e-10    1:c1_3_b  = 1.054e-10
 +   1:c1_4    = 1.054e-10    1:c1_4_b  = 1.054e-10    1:c1_b    = 1.978e-10
 +   1:c2      = 1.811e-10    1:c25     = 2.532e-10    1:c25b    = 7.899e-11
 +   1:c2_4    = 1.056e-10    1:c2_4_b  = 1.052e-10    1:c2_b    = 1.976e-10
 +   1:c3      = 1.805e-10    1:c35     = 2.534e-10    1:c35b    = 7.900e-11
 +   1:c3_4    = 1.052e-10    1:c3_4_b  = 1.053e-10    1:c3_b    = 1.980e-10
 +   1:c4      = 1.811e-10    1:c45     = 2.527e-10    1:c45b    = 7.888e-11
 +   1:c4_b    = 1.976e-10    1:c5      = 1.808e-10    1:c55     = 2.526e-10
 +   1:c55b    = 7.926e-11    1:c5_b    = 1.980e-10    1:c6      = 1.807e-10
 +   1:c65     = 2.531e-10    1:c65b    = 7.927e-11    1:c6_b    = 1.976e-10
 +   1:c7      = 1.808e-10    1:c75     = 2.534e-10    1:c75b    = 7.909e-11
 +   1:c7_b    = 1.973e-10    1:cin5    = 2.529e-10    1:cin5b   = 7.925e-11
 +   1:cin_1   = 1.055e-10    1:cin_1_b = 4.226e-15    1:cin_2   = 1.055e-10
 +   1:cin_2_b = 1.057e-10    1:cin_3   = 1.052e-10    1:cin_3_b = 1.054e-10
 +   1:cin_4   = 1.058e-10    1:cin_4_b = 1.056e-10    1:cout5   = 1.807e-10
 +   1:cout5_b = 1.972e-10    1:g0      = 1.058e-10    1:g0_b    = 4.258e-15
 +   1:g1      = 1.056e-10    1:g1_b    = 4.258e-15    1:g2      = 1.054e-10
 +   1:g2_b    = 4.264e-15    1:g3      = 1.058e-10    1:g3_b    = 4.258e-15
 +   1:g4      = 1.056e-10    1:g4_b    = 4.264e-15    1:g5      = 1.056e-10
 +   1:g5_b    = 4.264e-15    1:g6      = 1.054e-10    1:g6_b    = 4.264e-15
 +   1:g7      = 1.056e-10    1:g7_b    = 4.226e-15    1:gx1     = 1.809e-10
 +   1:gx1_b   = 1.978e-10    1:gx2     = 1.804e-10    1:gx2_b   = 1.975e-10
 +   1:gx3     = 1.808e-10    1:gx3_b   = 1.974e-10    1:gx4     = 1.810e-10
 +   1:gx4_b   = 1.978e-10    1:gx5     = 1.806e-10    1:gx5_b   = 1.974e-10
 +   1:gx6     = 1.806e-10    1:gx6_b   = 1.974e-10    1:gx7     = 1.804e-10
 +   1:gx7_b   = 1.974e-10    1:gy3     = 1.805e-10    1:gy3_b   = 1.974e-10
 +   1:gy4     = 1.805e-10    1:gy4_b   = 1.972e-10    1:gy5     = 1.809e-10
 +   1:gy5_b   = 1.972e-10    1:gy6     = 1.812e-10    1:gy6_b   = 1.976e-10
 +   1:gy7     = 1.806e-10    1:gy7_b   = 1.972e-10    1:gz7     = 1.804e-10
 +   1:gz7_b   = 1.972e-10    1:p0      =-3.621e-09    1:p0_2    = 1.049e-10
 +   1:p0_2_b  = 1.052e-10    1:p0_3    = 1.054e-10    1:p0_3_b  = 1.056e-10
 +   1:p0_4    = 1.054e-10    1:p0_4_b  = 1.053e-10    1:p0_5    = 1.053e-10
 +   1:p0_5_b  = 1.052e-10    1:p0_b    =-6.720e-05    1:p1      =-3.615e-09
 +   1:p1_2    = 1.053e-10    1:p1_2_b  = 1.052e-10    1:p1_3    = 1.057e-10
 +   1:p1_3_b  = 1.054e-10    1:p1_4    = 1.054e-10    1:p1_4_b  = 1.052e-10
 +   1:p1_5    = 1.054e-10    1:p1_5_b  = 1.051e-10    1:p1_b    =-6.713e-05
 +   1:p2      =-3.623e-09    1:p2_2    = 1.056e-10    1:p2_2_b  = 1.055e-10
 +   1:p2_3    = 1.052e-10    1:p2_3_b  = 1.054e-10    1:p2_4    = 1.052e-10
 +   1:p2_4_b  = 1.052e-10    1:p2_5    = 1.057e-10    1:p2_5_b  = 1.050e-10
 +   1:p2_b    =-6.713e-05    1:p3      =-3.611e-09    1:p3_2    = 1.054e-10
 +   1:p3_2_b  = 1.056e-10    1:p3_3    = 1.050e-10    1:p3_3_b  = 1.056e-10
 +   1:p3_4    = 1.054e-10    1:p3_4_b  = 1.054e-10    1:p3_5    = 1.057e-10
 +   1:p3_5_b  = 1.054e-10    1:p3_b    =-6.717e-05    1:p4      =-3.627e-09
 +   1:p4_2    = 1.054e-10    1:p4_2_b  = 1.056e-10    1:p4_3    = 1.054e-10
 +   1:p4_3_b  = 1.059e-10    1:p4_4    = 1.050e-10    1:p4_4_b  = 1.056e-10
 +   1:p4_5    = 1.052e-10    1:p4_5_b  = 1.059e-10    1:p4_b    =-6.717e-05
 +   1:p5      =-3.621e-09    1:p5_2    = 1.054e-10    1:p5_2_b  = 1.054e-10
 +   1:p5_3    = 1.050e-10    1:p5_3_b  = 1.055e-10    1:p5_4    = 1.054e-10
 +   1:p5_4_b  = 1.057e-10    1:p5_5    = 1.052e-10    1:p5_5_b  = 1.054e-10
 +   1:p5_b    =-6.714e-05    1:p6      =-3.623e-09    1:p6_2    = 1.054e-10
 +   1:p6_2_b  = 1.052e-10    1:p6_3    = 1.054e-10    1:p6_3_b  = 1.056e-10
 +   1:p6_4    = 1.054e-10    1:p6_4_b  = 1.052e-10    1:p6_5    = 1.056e-10
 +   1:p6_5_b  = 1.055e-10    1:p6_b    =-6.715e-05    1:p7      =-3.621e-09
 +   1:p7_2    = 1.053e-10    1:p7_2_b  = 1.054e-10    1:p7_3    = 1.052e-10
 +   1:p7_3_b  = 1.056e-10    1:p7_4    = 1.053e-10    1:p7_4_b  = 1.054e-10
 +   1:p7_5    = 1.055e-10    1:p7_5_b  = 1.055e-10    1:p7_b    =-6.716e-05
 +   1:px1     = 2.536e-10    1:px1_b   = 7.901e-11    1:px2     = 2.536e-10
 +   1:px2_b   = 7.886e-11    1:px3     = 2.533e-10    1:px3_b   = 7.898e-11
 +   1:px4     = 2.536e-10    1:px4_b   = 7.899e-11    1:px5     = 2.535e-10
 +   1:px5_b   = 7.932e-11    1:px6     = 2.538e-10    1:px6_b   = 7.904e-11
 +   1:px7     = 2.529e-10    1:px7_b   = 7.924e-11    1:py3     = 2.524e-10
 +   1:py3_b   = 7.897e-11    1:py4     = 2.527e-10    1:py4_b   = 7.900e-11
 +   1:py5     = 2.525e-10    1:py5_b   = 7.886e-11    1:py6     = 2.533e-10
 +   1:py6_b   = 7.913e-11    1:py7     = 2.532e-10    1:py7_b   = 7.891e-11
 +   1:pz7     = 2.529e-10    1:pz7_b   = 7.896e-11    1:sel21   = 4.221e-15
 +   1:sel21b  = 1.055e-10    1:sel22   = 1.050e-10    1:sel22b  = 1.058e-10
 +   1:sel23   = 1.054e-10    1:sel23b  = 1.054e-10    1:sel24   = 1.056e-10
 +   1:sel24b  = 1.057e-10    2:net1    =-3.621e-09    2:net2    =-1.493e-09
 +   2:net3    =-9.068e-10    2:net4    =-6.721e-05    3:net1    =-3.616e-09
 +   3:net2    =-1.491e-09    3:net3    =-9.058e-10    3:net4    =-6.713e-05
 +   4:net1    =-3.624e-09    4:net2    =-1.495e-09    4:net3    =-9.058e-10
 +   4:net4    =-6.714e-05    5:net1    =-3.612e-09    5:net2    =-1.489e-09
 +   5:net3    =-9.063e-10    5:net4    =-6.717e-05    6:net1    =-3.627e-09
 +   6:net2    =-1.496e-09    6:net3    =-9.063e-10    6:net4    =-6.717e-05
 +   7:net1    =-3.622e-09    7:net2    =-1.494e-09    7:net3    =-9.059e-10
 +   7:net4    =-6.714e-05    8:net1    =-3.624e-09    8:net2    =-1.495e-09
 +   8:net3    =-9.060e-10    8:net4    =-6.715e-05    9:net1    =-3.622e-09
 +   9:net2    =-1.494e-09    9:net3    =-9.062e-10    9:net4    =-6.716e-05
 +  10:net1    = 9.932e-15   11:net1    = 9.942e-15   12:net1    = 9.962e-15
 +  13:net1    = 9.932e-15   14:net1    = 9.975e-15   15:net1    = 9.930e-15
 +  16:net1    = 9.962e-15   17:net1    = 9.924e-15   20:net1    = 4.066e-10
 +  20:net2    = 2.767e-10   21:net1    = 4.070e-10   21:net2    = 2.771e-10
 +  22:net1    = 4.063e-10   22:net2    = 2.768e-10   23:net1    = 4.071e-10
 +  23:net2    = 2.768e-10   24:net1    = 4.068e-10   24:net2    = 2.768e-10
 +  25:net1    = 4.066e-10   25:net2    = 2.765e-10   26:net1    = 4.064e-10
 +  26:net2    = 2.767e-10   27:net1    = 4.063e-10   27:net2    = 2.766e-10
 +  28:net1    = 4.445e-10   29:net1    = 4.443e-10   30:net1    = 4.440e-10
 +  31:net1    = 4.444e-10   32:net1    = 4.447e-10   33:net1    = 4.447e-10
 +  34:net1    = 4.434e-10   45:net1    = 4.065e-10   45:net2    = 2.767e-10
 +  46:net1    = 4.061e-10   46:net2    = 2.772e-10   47:net1    = 4.062e-10
 +  47:net2    = 2.765e-10   48:net1    = 4.064e-10   48:net2    = 2.761e-10
 +  49:net1    = 4.065e-10   49:net2    = 2.762e-10   50:net1    = 4.071e-10
 +  50:net2    = 2.769e-10   51:net1    = 4.066e-10   51:net2    = 2.765e-10
 +  52:net1    = 4.422e-10   53:net1    = 4.428e-10   54:net1    = 4.421e-10
 +  55:net1    = 4.429e-10   56:net1    = 4.427e-10   68:net1    = 4.069e-10
 +  68:net2    = 2.770e-10   69:net1    = 4.070e-10   69:net2    = 2.769e-10
 +  70:net1    = 4.071e-10   70:net2    = 2.765e-10   71:net1    = 4.067e-10
 +  71:net2    = 2.765e-10   72:net1    = 4.061e-10   72:net2    = 2.765e-10
 +  73:net1    = 4.425e-10   87:net1    = 4.063e-10   87:net2    = 2.762e-10
 +  88:net1    = 4.432e-10   89:net1    = 4.430e-10   90:net1    = 4.431e-10
 +  91:net1    = 4.432e-10   92:net1    = 4.424e-10   93:net1    = 4.422e-10
 +  94:net1    = 4.430e-10   95:net1    = 4.432e-10  104:net1    = 4.741e-10
 + 104:net2    = 4.740e-10  104:net3    = 4.739e-10  104:net4    = 4.744e-10
 + 105:net1    = 4.752e-10  105:net2    = 4.741e-10  105:net3    = 4.743e-10
 + 105:net4    = 4.739e-10  106:net1    = 4.737e-10  106:net2    = 4.741e-10
 + 106:net3    = 4.742e-10  106:net4    = 4.748e-10  107:net1    = 4.744e-10
 + 107:net2    = 4.745e-10  107:net3    = 4.746e-10  107:net4    = 4.741e-10
 + 108:net1    = 4.744e-10  108:net2    = 4.748e-10  108:net3    = 4.741e-10
 + 108:net4    = 4.738e-10  109:net1    = 4.745e-10  109:net2    = 4.744e-10
 + 109:net3    = 4.743e-10  109:net4    = 4.738e-10  110:net1    = 4.744e-10
 + 110:net2    = 4.738e-10  110:net3    = 4.746e-10  110:net4    = 4.745e-10
 + 111:net1    = 4.740e-10  111:net2    = 4.742e-10  111:net3    = 4.745e-10
 + 111:net4    = 4.742e-10


 ****  voltage sources

 subckt                                                          
 element     0:vclk1       0:vclk2       0:vclk3       0:vclk4   
  volts         0.            0.            0.            0.     
  current    -5.467e-11     6.286e-15     3.820e-16     2.925e-16
  power         0.            0.            0.            0.     

 subckt                                                          
 element     0:vs2         0:vs2b        0:va0         0:va0b    
  volts       5.000e-01       0.          5.000e-01       0.     
  current    -5.000e-13       0.         -5.000e-13       0.     
  power       2.500e-13       0.          2.500e-13       0.     

 subckt                                                          
 element     0:va1         0:va1b        0:va2         0:va2b    
  volts       5.000e-01       0.          5.000e-01       0.     
  current    -5.000e-13       0.         -5.000e-13       0.     
  power       2.500e-13       0.          2.500e-13       0.     

 subckt                                                          
 element     0:va3         0:va3b        0:va4         0:va4b    
  volts       5.000e-01       0.          5.000e-01       0.     
  current    -5.000e-13       0.         -5.000e-13       0.     
  power       2.500e-13       0.          2.500e-13       0.     

 subckt                                                          
 element     0:va5         0:va5b        0:va6         0:va6b    
  volts       5.000e-01       0.          5.000e-01       0.     
  current    -5.000e-13       0.         -5.000e-13       0.     
  power       2.500e-13       0.          2.500e-13       0.     

 subckt                                                          
 element     0:va7         0:va7b        0:vb0         0:vb0b    
  volts       5.000e-01       0.            0.          5.000e-01
  current    -5.000e-13       0.            0.         -5.000e-13
  power       2.500e-13       0.            0.          2.500e-13

 subckt                                                          
 element     0:vb1         0:vb1b        0:vb2         0:vb2b    
  volts         0.          5.000e-01       0.          5.000e-01
  current       0.         -5.000e-13       0.         -5.000e-13
  power         0.          2.500e-13       0.          2.500e-13

 subckt                                                          
 element     0:vb3         0:vb3b        0:vb4         0:vb4b    
  volts         0.          5.000e-01       0.          5.000e-01
  current       0.         -5.000e-13       0.         -5.000e-13
  power         0.          2.500e-13       0.          2.500e-13

 subckt                                                          
 element     0:vb5         0:vb5b        0:vb6         0:vb6b    
  volts         0.          5.000e-01       0.          5.000e-01
  current       0.         -5.000e-13       0.         -5.000e-13
  power         0.          2.500e-13       0.          2.500e-13

 subckt                                                          
 element     0:vb7         0:vb7b        0:vcin        0:vcinb   
  volts         0.          5.000e-01       0.          5.000e-01
  current       0.         -5.000e-13       0.         -5.000e-13
  power         0.          2.500e-13       0.          2.500e-13

     total voltage source power dissipation=  4.500e-12       watts


 ******  
  init                                                                         
  ******  transient analysis               tnom=  25.000 temp=  25.000         
 ******  
   itotal1= -6.5396E-08  from=  8.0000E-09     to=  5.0000E-08
   vtotal1=  2.5000E-01  from=  8.0000E-09     to=  5.0000E-08
   etotal1= -1.6349E-08
   p_avg1= -3.4024E-08  from=  8.0000E-09     to=  5.0000E-08
   itotal2= -5.9304E-08  from=  8.0000E-09     to=  5.0000E-08
   vtotal2=  2.5000E-01  from=  8.0000E-09     to=  5.0000E-08
   etotal2= -1.4826E-08
   p_avg2= -3.8968E-08  from=  8.0000E-09     to=  5.0000E-08
   itotal3= -3.8527E-08  from=  8.0000E-09     to=  5.0000E-08
   vtotal3=  2.5000E-01  from=  8.0000E-09     to=  5.0000E-08
   etotal3= -9.6317E-09
   p_avg3= -2.2890E-08  from=  8.0000E-09     to=  5.0000E-08
   itotal4= -3.6244E-08  from=  8.0000E-09     to=  5.0000E-08
   vtotal4=  2.5000E-01  from=  8.0000E-09     to=  5.0000E-08
   etotal4= -9.0611E-09
   p_avg4= -1.8598E-08  from=  8.0000E-09     to=  5.0000E-08
   etotal= -4.9868E-08

          ***** job concluded
1 ****** HSPICE -Z-2007.03 32-BIT  (Feb 28 2007) 23:12:08 02/10/2016 pcnt       
 ******  
  init                                                                         
  ******  job statistics summary           tnom=  25.000 temp=  25.000         
 ******  

           total memory used      53018 kbytes

  # nodes =    6488 # elements=   16058
  # diodes=       0 # bjts    =       0 # jfets   =       0 # mosfets =       0
  # va device =       0

    analysis           time    # points   tot. iter  conv.iter

    op point          38.85           1          14
    transient       6350.70          51        3022         678 rev=        75
    readin             0.15
    errchk           246.48
    setup              0.35
    output             0.00
           total cpu time       6636.61 seconds
               job started at  23:12:08 02/10/2016
               job ended   at  01:02:45 02/11/2016


  Init: hspice initialization file: C:\synopsys\Hspice_Z-2007.03\hspice.ini     
                                                  
  lic: Release hspice token(s) 
