 ****** HSPICE -Z-2007.03 32-BIT  (Feb 28 2007) 14:01:54 02/02/2016 pcnt       
  Copyright (C) 2007 Synopsys, Inc. All Rights Reserved.                       
  Unpublished-rights reserved under US copyright laws.
  This program is protected by law and is subject to the 
  terms and conditions of the license agreement found in:
    C:\synopsys\Hspice_Z-2007.03\license.txt
  Use of this program is your acceptance to be bound by this 
  license agreement. HSPICE is the trademark of Synopsys, Inc.
  Input File: f:\major_project\codes\gnrfet\adiabatic_logic\pfal\2_1_mux\init.sp
  lic:  
  lic: FLEXlm: v8.4b 
  lic: USER:   MAHADIKAR M          HOSTNAME: Megaraj 
  lic: HOSTID: "4ae3477af0ef 1ae3477af0ef 28e3477af0ef a01d4811dd4f 080027004899
 "
  lic: Using FLEXlm license file: 
  lic: c:\synopsys\hspice_2007-09.lic 
  lic: Checkout 1 hspice;  Encryption code: AD47C1C891DA5D596A45 
  lic: License/Maintenance for hspice will expire on 31-dec-2020/2007.9 
  lic: NODE LOCKED license on hostid "4ae3477af0ef 1ae3477af0ef 28e3477af0ef a01
 d
  lic:   
 Init: read install configuration file: C:\synopsys\Hspice_Z-2007.03\meta.cfg
  Init: hspice initialization file: C:\synopsys\Hspice_Z-2007.03\hspice.ini     
                                                  

 .options post
 .options autostop
 .options autostop
 .options ingold=2     dcon=1
 .options ingold=2     dcon=1
 .options gshunt=1e-12 rmin=1e-15 
 .options gshunt=1e-12 rmin=1e-15 
 .options abstol=1e-5  absvdc=1e-4 
 .options abstol=1e-5  absvdc=1e-4 
 .options reltol=1e-2  relvdc=1e-2 
 .options reltol=1e-2  relvdc=1e-2 
 .options numdgt=4     pivot=1
 .options numdgt=4     pivot=1
 *.options trcon=0
 *.options trcon=0

 *library file*
 .lib 'gnrfet.lib' gnrfet

 .include "f:\major_project\codes\gnrfet\adiabatic_logic\pfal\2_1_mux\pfal_2_1_mux.sp"
 .endl gnrfet

 .include "f:\major_project\codes\gnrfet\adiabatic_logic\pfal\2_1_mux\pfal_2_1_mux.sp"
 .param   temp=27
 ******************************pfal mux 2x1***************************************
 .subckt pfal_mux2_1 pwr_clk s a b s_b a_b b_b y y_b
 xm1p y y_b pwr_clk pwr_clk gnrfetpmos nrib=6 n=12 l=10n tox=0.95n sp=2n dop=0.001 p=0
 xm1p y y_b pwr_clk pwr_clk gnrfetpmos nrib=6 n=12 l=10n tox=0.95n sp=2n dop=0.001 p=0
 xm2p y_b y pwr_clk pwr_clk gnrfetpmos nrib=6 n=12 l=10n tox=0.95n sp=2n dop=0.001 p=0
 xm2p y_b y pwr_clk pwr_clk gnrfetpmos nrib=6 n=12 l=10n tox=0.95n sp=2n dop=0.001 p=0
 xm1n y y_b gnd gnd gnrfetnmos nrib=6 n=12 l=10n tox=0.95n sp=2n dop=0.001 p=0
 xm1n y y_b gnd gnd gnrfetnmos nrib=6 n=12 l=10n tox=0.95n sp=2n dop=0.001 p=0
 xm2n y_b y gnd gnd gnrfetnmos nrib=6 n=12 l=10n tox=0.95n sp=2n dop=0.001 p=0
 xm2n y_b y gnd gnd gnrfetnmos nrib=6 n=12 l=10n tox=0.95n sp=2n dop=0.001 p=0
 xm3n pwr_clk s_b net1 gnd gnrfetnmos nrib=6 n=12 l=10n tox=0.95n sp=2n dop=0.001 p=0
 xm3n pwr_clk s_b net1 gnd gnrfetnmos nrib=6 n=12 l=10n tox=0.95n sp=2n dop=0.001 p=0
 xm4n net1 a y gnd gnrfetnmos nrib=6 n=12 l=10n tox=0.95n sp=2n dop=0.001 p=0
 xm4n net1 a y gnd gnrfetnmos nrib=6 n=12 l=10n tox=0.95n sp=2n dop=0.001 p=0
 xm5n pwr_clk s net2 gnd gnrfetnmos nrib=6 n=12 l=10n tox=0.95n sp=2n dop=0.001 p=0
 xm5n pwr_clk s net2 gnd gnrfetnmos nrib=6 n=12 l=10n tox=0.95n sp=2n dop=0.001 p=0
 xm6n net2 b y gnd gnrfetnmos nrib=6 n=12 l=10n tox=0.95n sp=2n dop=0.001 p=0
 xm6n net2 b y gnd gnrfetnmos nrib=6 n=12 l=10n tox=0.95n sp=2n dop=0.001 p=0
 xm7n pwr_clk s_b net3 gnd gnrfetnmos nrib=6 n=12 l=10n tox=0.95n sp=2n dop=0.001 p=0
 xm7n pwr_clk s_b net3 gnd gnrfetnmos nrib=6 n=12 l=10n tox=0.95n sp=2n dop=0.001 p=0
 xm8n pwr_clk b_b net3 gnd gnrfetnmos nrib=6 n=12 l=10n tox=0.95n sp=2n dop=0.001 p=0
 xm8n pwr_clk b_b net3 gnd gnrfetnmos nrib=6 n=12 l=10n tox=0.95n sp=2n dop=0.001 p=0
 xm9n net3 s y_b gnd gnrfetnmos nrib=6 n=12 l=10n tox=0.95n sp=2n dop=0.001 p=0
 xm9n net3 s y_b gnd gnrfetnmos nrib=6 n=12 l=10n tox=0.95n sp=2n dop=0.001 p=0
 xm10n net3 a_b y_b gnd gnrfetnmos nrib=6 n=12 l=10n tox=0.95n sp=2n dop=0.001 p=0
 xm10n net3 a_b y_b gnd gnrfetnmos nrib=6 n=12 l=10n tox=0.95n sp=2n dop=0.001 p=0
 .ends pfal_mux2_1
 .ends pfal_mux2_1
 .param   temp=27

 .global gnd



 va va gnd pulse 0 .5 2n 0.1n 0.1n 2n 10n
 vab vab gnd pulse 0 .5 6.5n 0.1n 0.1n 2.5n 10.5n
 vab vab gnd pulse 0 .5 6.5n 0.1n 0.1n 2.5n 10.5n
 vbb vbb gnd pulse 0 .5 2n .1n .1n 2n 10n 
 vbb vbb gnd pulse 0 .5 2n .1n .1n 2n 10n 
 vb vb gnd pulse 0 .5 6.5n 0.1n 0.1n 2.5n 10.5n
 vb vb gnd pulse 0 .5 6.5n 0.1n 0.1n 2.5n 10.5n
 vc vc gnd pulse 0 .5 2n .1n .1n 2n 10n 
 vc vc gnd pulse 0 .5 2n .1n .1n 2n 10n 
 vcb vcb gnd pulse 0 .5 6.5n 0.1n 0.1n 2.5n 10.5n
 vcb vcb gnd pulse 0 .5 6.5n 0.1n 0.1n 2.5n 10.5n
 v2 v2 0 pulse .5 0 0 .5n .5n 2n 5.0n
 v2 v2 0 pulse .5 0 0 .5n .5n 2n 5.0n

 xadder v2 va vb vc vab vbb vcb y yb pfal_mux2_1


 * transient analysis *


 * transient analysis *
 .op
 .tran 1n 25n
 .tran 1n 25n
 .print power
 .print power
 .end 
 .end 

1 ****** HSPICE -Z-2007.03 32-BIT  (Feb 28 2007) 14:01:54 02/02/2016 pcnt       
 ******  
  init                                                                         
  ******  circuit name directory                                               
 ******  
 circuit number to circuit name directory
   number circuitname                     definition         multiplier
        0 main circuit
        1 xadder.                         pfal_mux2_1        1.00 

 **warning** dc voltage reset to initial transient source value
             in source        0:va                  new dc=  0.0000D+00


 **warning** dc voltage reset to initial transient source value
             in source        0:vab                 new dc=  0.0000D+00


 **warning** dc voltage reset to initial transient source value
             in source        0:vbb                 new dc=  0.0000D+00


 **warning** dc voltage reset to initial transient source value
             in source        0:vb                  new dc=  0.0000D+00


 **warning** dc voltage reset to initial transient source value
             in source        0:vc                  new dc=  0.0000D+00


 **warning** dc voltage reset to initial transient source value
             in source        0:vcb                 new dc=  0.0000D+00


 **warning** dc voltage reset to initial transient source value
             in source        0:v2                  new dc=  0.5000D+00

  Opening plot unit= 79
 file=f:\major_project\codes\gnrfet\adiabatic_logic\pfal\2_1_mux\init.pa0      

1 ****** HSPICE -Z-2007.03 32-BIT  (Feb 28 2007) 14:01:54 02/02/2016 pcnt       
 ******  
  init                                                                         
  ******  operating point information      tnom=  25.000 temp=  25.000         
 ******  
 ***** operating point status is all       simulation time is     0.     
     node    =voltage       node    =voltage       node    =voltage

 + 0:v2      = 5.000e-01  0:va      =   0.       0:vab     =   0.     
 + 0:vb      =   0.       0:vbb     =   0.       0:vc      =   0.     
 + 0:vcb     =   0.       0:y       = 2.500e-01  0:yb      = 2.500e-01
 + 1:net1    = 1.999e-01  1:net2    = 1.999e-01  1:net3    = 2.057e-01


 ****  voltage sources

 subckt                                                              
 element   0:va        0:vab       0:vbb       0:vb        0:vc      
  volts       0.          0.          0.          0.          0.     
  current     0.          0.          0.          0.          0.     
  power       0.          0.          0.          0.          0.     

 subckt                          
 element   0:vcb       0:v2      
  volts       0.        5.000e-01
  current     0.       -2.480e-06
  power       0.        1.240e-06

     total voltage source power dissipation=  1.240e-06       watts


 ******  
  init                                                                         
  ******  transient analysis               tnom=  25.000 temp=  25.000         
 ******  
x

        time    power      
                total      
    0.          1.240e-06  
  1.0000e-09    3.590e-10  
  2.0000e-09    1.879e-10  
  3.0000e-09    6.429e-08  
  4.0000e-09   -1.619e-07  
  5.0000e-09    7.769e-09  
  6.0000e-09    1.434e-09  
  7.0000e-09    3.934e-07  
  8.0000e-09    6.208e-05  
  9.0000e-09    1.987e-08  
  1.0000e-08   -2.129e-08  
  1.1000e-08    8.382e-10  
  1.2000e-08    1.165e-10  
  1.3000e-08    8.471e-08  
  1.4000e-08   -3.087e-09  
  1.5000e-08    7.795e-09  
  1.6000e-08    1.012e-09  
  1.7000e-08    9.041e-11  
  1.8000e-08    6.144e-05  
  1.9000e-08    6.484e-09  
  2.0000e-08    1.388e-07  
  2.1000e-08    3.719e-10  
  2.2000e-08    1.080e-10  
  2.3000e-08    8.112e-08  
  2.4000e-08   -3.099e-09  
  2.5000e-08    7.795e-09  
y

          ***** job concluded
1 ****** HSPICE -Z-2007.03 32-BIT  (Feb 28 2007) 14:01:54 02/02/2016 pcnt       
 ******  
  init                                                                         
  ******  job statistics summary           tnom=  25.000 temp=  25.000         
 ******  

           total memory used        777 kbytes

  # nodes =      91 # elements=     213
  # diodes=       0 # bjts    =       0 # jfets   =       0 # mosfets =       0
  # va device =       0

    analysis           time    # points   tot. iter  conv.iter

    op point           0.34           1          17
    transient         16.92          26         984         239 rev=        23
    readin             0.09
    errchk             0.16
    setup              0.08
    output             0.00
           total cpu time         17.62 seconds
               job started at  14:01:54 02/02/2016
               job ended   at  14:02:12 02/02/2016


  Init: hspice initialization file: C:\synopsys\Hspice_Z-2007.03\hspice.ini     
                                                  
  lic: Release hspice token(s) 
