$DATA1 SOURCE='HSPICE' VERSION='A-2008.03 32-BIT'
.TITLE 'alu'
 td1              temper           alter#            
