 ****** HSPICE -Z-2007.03 32-BIT  (Feb 28 2007) 18:52:20 02/09/2016 pcnt       
  Copyright (C) 2007 Synopsys, Inc. All Rights Reserved.                       
  Unpublished-rights reserved under US copyright laws.
  This program is protected by law and is subject to the 
  terms and conditions of the license agreement found in:
    C:\synopsys\Hspice_Z-2007.03\license.txt
  Use of this program is your acceptance to be bound by this 
  license agreement. HSPICE is the trademark of Synopsys, Inc.
  Input File: f:\major_project\codes\cmos\conventional\alu\alu (2).sp           
  lic:  
  lic: FLEXlm: v8.4b 
  lic: USER:   MAHADIKAR M          HOSTNAME: Megaraj 
  lic: HOSTID: "4ae3477af0ef 1ae3477af0ef 28e3477af0ef a01d4811dd4f 080027004899
 "
  lic: Using FLEXlm license file: 
  lic: c:\synopsys\hspice_2007-09.lic 
  lic: Checkout 1 hspice;  Encryption code: AD47C1C891DA5D596A45 
  lic: License/Maintenance for hspice will expire on 31-dec-2020/2007.9 
  lic: NODE LOCKED license on hostid "4ae3477af0ef 1ae3477af0ef 28e3477af0ef a01
 d
  lic:   
 Init: read install configuration file: C:\synopsys\Hspice_Z-2007.03\meta.cfg
  Init: hspice initialization file: C:\synopsys\Hspice_Z-2007.03\hspice.ini     
                                                  
 .include "c:\synopsys\hl\hp\ptm10hp.sp"



 .param vdd=.75v 
 .param vddp=-0.75 
 .param vddp=-0.75 
 .param fin_height=21n 
 .param fin_height=21n 
 .param fin_width=10n 
 .param fin_width=10n 
 .param lg=10e-009
 .param lg=10e-009


 .subckt n10hpfet d g s x lg fin_width

 .include 'c:\synopsys\hl\hp\10nm\10nfet.pm'

 .include 'c:\synopsys\hl\hp\10nm\10nfet.pm'

 mn2 d g s x nfet lg=lg tfin=fin_width nfin=1
 ** ptm-mg 10nm hspice model card for hp nfet 
 ** nominal vdd=0.75v

 .model nfet nmos level = 70
 + bulkmod = 1 
 +lmin    = 1e-008          lmax    = 3e-008        
 ************************************************************
 *                         general                          *
 ************************************************************
 *========================= flags ==========================*
 +version = 105.03          bulkmod = 1               igcmod  = 1               igbmod  = 1             
 +gidlmod = 0               iimod   = 0               geomod  = 1               rdsmod  = 1             
 +rgatemod= 0               rgeomod = 1               shmod   = 0               nqsmod  = 0             
 +coremod = 0               cgeomod = 2               capmod  = 0               tnom    = 300.15        
 *======================== process =========================*
 +eot     = 6.8e-010        eotbox  = 1.4e-007        tfin    = 8e-009          toxp    = 1.2e-009      
 +nbody   = 2.5e+022        phig    = 4.4212           epsrox  = 3.9             epsrsub = 11.9          
 +easub   = 4.05            ni0sub  = 1.1e+016        bg0sub  = 1.12            nc0sub  = 2.86e+025     
 +nsd     = 3e+026          ngate   = 0               nfin    = 1               d       = 4e-008        
 +nseg    = 5               l       = 1.4e-008      
 *========================== w/l ===========================*
 +xl      = 0               lint    = 6e-010          ll      = 0               lln     = 1             
 +llc     = 0               dlc     = 0               dlbin   = 0               hfin    = 2.1e-008      
 +fech    = 1               deltaw  = 0               deltawcv= 0               fechcv  = 1             
 +hepi    = 8.5e-009      
 *======================== geometry ========================*
 +tsili   = 7e-009          rhoc    = 6e-13        cratio  = 0.5             deltaprsd= 0             
 +sdterm  = 0               ldg     = 2e-009          epsrsp  = 3.9             tgate   = 8e-009        
 +tmask   = 0               asiliend= 0               arsdend = 0               prsdend = 0             
 +nsde    = 6e+025          rgeoa   = 1               rgeob   = 0               rgeoc   = 0             
 +rgeod   = 0               rgeoe   = 0               cgeoa   = 1               cgeob   = 0             
 +cgeoc   = 0               cgeod   = 0               cgeoe   = 1             
 *===================== model_selector =====================*
 ************************************************************
 *                            dc                            *
 ************************************************************
 +cit     = 1.3e-005      
 *========================== vth ===========================*
 +cdsc    = 0.032          cdscd   = 0.007           dvt0    = 0.01            dvt1    = 0.69          
 +phin    = 0.05            eta0    = 0.6778            dsub    = 0.9             k1rsce  = 0             
 +lpe0    = 5e-009          dvtshift= 0               qmfactor= 0               qmtceniv= 0             
 +qmtcencv= 0               etaqm   = 0.54            qm0     = 0.001143        pqm     = 0.66          
 +qm0acc  = 0.001           pqmacc  = 0.66            delvfbacc= 0               u0      = 0.0568        
 *======================== mobility ========================*
 +etamob  = 2               up      = 0               lpa     = 1               ua      = 0.3           
 +aua     = 0               bua     = 1e-007          eu      = 1.8             ud      = 0             
 +aud     = 0               bud     = 5e-008          ucs     = 0               rdswmin = 0             
 *======================= resistance =======================*
 +rdsw    = 100             ardsw   = 0               brdsw   = 1e-007          prwg    = 0             
 +wr      = 1               rswmin  = 0               rsw     = 0              arsw    = 0             
 +brsw    = 1e-007          rdwmin  = 0               rdw     = 0              ardw    = 0             
 +brdw    = 1e-007          rgfin   = 0.001           rgext   = 0               rshs    = 0             
 +vsat    = 132000        
 *======================= saturation =======================*
 +deltavsat= 1               ksativ  = 0.8             avsat   = 0               avsat1  = 0             
 +bvsat   = 1e-007          bvsat1  = 1e-007          mexp    = 3               amexp   = 0             
 +bmexp   = 1               ptwg    = 0               aptwg   = 0               bptwg   = 1e-007        
 *========================== rout ==========================*
 +pclm    = 0.2             pclmcv  = 0.013           apclm   = 0               bpclm   = 1e-007        
 +pclmg   = 0               pclmgcv = 0               vasat   = 0.6             vasatcv = 0.2           
 +pdibl1  = 1.3             pdibl2  = 0.0002          drout   = 1.06            pvag    = 1             
 +fpitch  = 2.8e-008      
 *====================== self-heating ======================*
 +rth0    = 0.01            cth0    = 1e-005          wth0    = 0             
 ************************************************************
 *                         leakage                          *
 ************************************************************
 +aigbinv = 0.0111        
 *========================== igb ===========================*
 +bigbinv = 0.03            cigbinv = 0.006           eigbinv = 1.1             nigbinv = 1.2             
 +aigbacc = 0.0149          bigbacc = 0.000949        cigbacc = 0.075           nigbacc = 3             
 +aigc    = 0.0136        
 *========================== igc ===========================*
 +bigc    = 0.00171         cigc    = 0.075           nigc    = 1             
 *======================== igs/igd =========================*
 +dlcigs  = 0               dlcigd  = 0               aigs    = 0.0136          aigd    = 0.0136        
 +bigs    = 0.00171         bigd    = 0.00171         cigs    = 0.075           cigd    = 0.075         
 +poxedge = 1               agidl   = 5.729e-012    
 *======================= gidl/gisl ========================*
 +agisl   = 5.729e-012      bgidl   = 3e+008          bgisl   = 3e+008          egidl   = 0.1           
 +egisl   = 0.1             alpha0  = 0             
 *========================== isub ==========================*
 +alpha1  = 0               alphaii = 0               betaii0 = 0               betaii1 = 0             
 +betaii2 = 0.1             esatii  = 10000000        lii     = 5e-010          sii0    = 0.5           
 +sii1    = 0.1             sii2    = 0               siid    = 0               beta0   = 30            
 +lintigen= 0             
 *================ generation/recombination ================*
 +ntgen   = 1               aigen   = 0               bigen   = 0             
 ************************************************************
 *                            rf                            *
 ************************************************************
 +xrcrg1  = 12            
 *==================== nonquasi-static =====================*
 +xrcrg2  = 1             
 ************************************************************
 *                         junction                         *
 ************************************************************
 *======================== current =========================*
 +jss     = 0.0001          jsd     = 0.0001          jsws    = 0               jswgs   = 0             
 +njs     = 1               njd     = 1               ijthsfwd= 0.1             ijthdfwd= 0.1           
 +ijthsrev= 0.1             ijthdrev= 0.1             bvs     = 10              bvd     = 10            
 +xjbvs   = 1               xjbvd   = 1               cjs     = 0.0005        
 *====================== capacitance =======================*
 +cjd     = 0.0005          cjsws   = 5e-010          cjswgs  = 0               pbs     = 1             
 +pbd     = 1               pbsws   = 1               mjs     = 0.5             mjd     = 0.5           
 +mjsws2  = 0.33            mjswd2  = 0.33            mjsws   = 0.33            sjs     = 0             
 +sjsws   = 0               sjswgs  = 0               mjs2    = 0.125           mjd2    = 0.125         
 ************************************************************
 *                       capacitance                        *
 ************************************************************
 *====================== capacitance =======================*
 +cgsp    = 0               cgdp    = 0               cdsp    = 0               cfs     = 2.56e-011     
 +cfd     = 2.65e-011       covs    = 2.5e-011        covd    = 2.5e-011        cgsl    = 0             
 +ckappas = 0.6             cgbo    = 0               cgbl    = 0             
 ************************************************************
 *                       temperature                        *
 ************************************************************
 +tbgasub = 0.000702      
 *======================== process =========================*
 +tbgbsub = 1108            kt1     = 0             
 *========================== vth ===========================*
 +kt1l    = 0               ute     = 0             
 *======================== mobility ========================*
 +utl     = -0.0015         ua1     = 0.001032        ud1     = 0               ucste   = -0.00478      
 +at      = -0.00156      
 *========================== vsat ==========================*
 +ptwgt   = 0.004           tmexp   = 0               prt     = 0.001         
 *======================== resistor ========================*
 +iit     = -0.5          
 *========================== isub ==========================*
 +tii     = 0               tgidl   = -0.0003       
 *========================== gidl ==========================*
 +igt     = 2.5           
 *====================== gatecurrent =======================*
 *======================== junction ========================*
 +tcj     = 0               tcjsw   = 0               tcjswg  = 0               tpb     = 0             
 +tpbsw   = 0               tpbswg  = 0               xtis    = 3               xtid    = 3             
 +xtss    = 0.02            xtssws  = 0.02            xtsswgs = 0.02            tnjts   = 0             
 +tnjtssw = 0               tnjtsswg= 0             
 ************************************************************
 *                          noise                           *
 ************************************************************
 +ef      = 1             
 *========================== 1/f ===========================*
 +lintnoi = 0               em      = 41000000        noia    = 6.25e+039       noib    = 3.125e+024    
 +noic    = 87500000        ntnoi   = 1             
  **warning** (C:\synopsys\hl\hp\10nm\10nfet.pm:84)  model nfet            device geometries will not be checked against the limits set bylmin, lmax, wmin and wmax. To enable this check, add a period(.)to the model name(i.e. enable model selector).

 mn2 d g s x nfet lg=lg tfin=fin_width nfin=1

 .ends
  **warning** (C:\synopsys\hl\hp\ptm10hp.sp:14) parameter  lg       is ignored
  **warning** (C:\synopsys\hl\hp\ptm10hp.sp:14) parameter  tfin     is ignored
  **warning** (C:\synopsys\hl\hp\ptm10hp.sp:14) parameter  nfin     is ignored

 .ends


 .subckt p10hpfet d g s x lg fin_width

 .include 'c:\synopsys\hl\hp\10nm\10pfet.pm'

 .include 'c:\synopsys\hl\hp\10nm\10pfet.pm'

 mp2 d g s x pfet lg=lg tfin=fin_width nfin=1
 ** ptm-mg 10nm hspice model card for hp pfet 
 ** nominal vdd=0.75

 .model pfet pmos level = 70
 + bulkmod = 1 
 +lmin    = 1e-008          lmax    = 3e-008        
 ************************************************************
 *                         general                          *
 ************************************************************
 *========================= flags ==========================*
 +version = 105.03          bulkmod = 1               igcmod  = 1               igbmod  = 1             
 +gidlmod = 0               iimod   = 0               geomod  = 1               rdsmod  = 1             
 +rgatemod= 0               rgeomod = 1               shmod   = 0               nqsmod  = 0             
 +coremod = 0               cgeomod = 2               capmod  = 0               tnom    = 300.15        
 *======================== process =========================*
 +eot     = 6.8e-010        eotbox  = 1.4e-007        tfin    = 8e-009          toxp    = 1.2e-009      
 +nbody   = 2.5e+022        phig    = 4.7509          epsrox  = 3.9             epsrsub = 11.9          
 +easub   = 4.05            ni0sub  = 1.1e+016        bg0sub  = 1.12            nc0sub  = 2.86e+025     
 +nsd     = 3e+026          ngate   = 0               nfin    = 1               d       = 4e-008        
 +nseg    = 5               l       = 1.4e-008      
 *========================== w/l ===========================*
 +xl      = 0               lint    = 6e-010          ll      = 0               lln     = 1             
 +llc     = 0               dlc     = 0               dlbin   = 0               hfin    = 2.1e-008      
 +fech    = 1               deltaw  = 0               deltawcv= 0               fechcv  = 1             
 +hepi    = 8.5e-009      
 *======================== geometry ========================*
 +tsili   = 7e-009          rhoc    = 7e-13        cratio  = 0.5             deltaprsd= 0             
 +sdterm  = 0               ldg     = 2e-009          epsrsp  = 3.9             tgate   = 8e-009        
 +tmask   = 0               asiliend= 0               arsdend = 0               prsdend = 0             
 +nsde    = 6e+025          rgeoa   = 1               rgeob   = 0               rgeoc   = 0             
 +rgeod   = 0               rgeoe   = 0               cgeoa   = 1               cgeob   = 0             
 +cgeoc   = 0               cgeod   = 0               cgeoe   = 1             
 *===================== model_selector =====================*
 ************************************************************
 *                            dc                            *
 ************************************************************
 +cit     = 1.3e-005      
 *========================== vth ===========================*
 +cdsc    = 0.032           cdscd   = 0.007           dvt0    = 0.01            dvt1    = 0.69          
 +phin    = 0.05            eta0    = 0.93            dsub    = 0.9             k1rsce  = 0             
 +lpe0    = 5e-009          dvtshift= 0               qmfactor= 0               qmtceniv= 0             
 +qmtcencv= 0               etaqm   = 0.54            qm0     = 0.001143        pqm     = 0.66          
 +qm0acc  = 0.001           pqmacc  = 0.66            delvfbacc= 0               u0      = 0.0376        
 *======================== mobility ========================*
 +etamob  = 2               up      = 0               lpa     = 1               ua      = 0.3           
 +aua     = 0               bua     = 1e-007          eu      = 1.8             ud      = 0             
 +aud     = 0               bud     = 5e-008          ucs     = 0               rdswmin = 0             
 *======================= resistance =======================*
 +rdsw    = 100             ardsw   = 0               brdsw   = 1e-007          prwg    = 0             
 +wr      = 1               rswmin  = 0               rsw     = 0              arsw    = 0             
 +brsw    = 1e-007          rdwmin  = 0               rdw     = 0              ardw    = 0             
 +brdw    = 1e-007          rgfin   = 0.001           rgext   = 0               rshs    = 0             
 +vsat    = 129000        
 *======================= saturation =======================*
 +deltavsat= 1               ksativ  = 0.8             avsat   = 0               avsat1  = 0             
 +bvsat   = 1e-007          bvsat1  = 1e-007          mexp    = 3               amexp   = 0             
 +bmexp   = 1               ptwg    = 0               aptwg   = 0               bptwg   = 1e-007        
 *========================== rout ==========================*
 +pclm    = 0.2             pclmcv  = 0.013           apclm   = 0               bpclm   = 1e-007        
 +pclmg   = 0               pclmgcv = 0               vasat   = 0.6             vasatcv = 0.2           
 +pdibl1  = 1.3             pdibl2  = 0.0002          drout   = 1.06            pvag    = 1             
 +fpitch  = 2.8e-008      
 *====================== self-heating ======================*
 +rth0    = 0.01            cth0    = 1e-005          wth0    = 0             
 ************************************************************
 *                         leakage                          *
 ************************************************************
 +aigbinv = 0.0111        
 *========================== igb ===========================*
 +bigbinv = 0.03            cigbinv = 0.006           eigbinv = 1.1             nigbinv = 1.2             
 +aigbacc = 0.0149          bigbacc = 0.000949        cigbacc = 0.075           nigbacc = 3             
 +aigc    = 0.0136        
 *========================== igc ===========================*
 +bigc    = 0.00171         cigc    = 0.075           nigc    = 1             
 *======================== igs/igd =========================*
 +dlcigs  = 0               dlcigd  = 0               aigs    = 0.0136          aigd    = 0.0136        
 +bigs    = 0.00171         bigd    = 0.00171         cigs    = 0.075           cigd    = 0.075         
 +poxedge = 1               agidl   = 5.729e-012    
 *======================= gidl/gisl ========================*
 +agisl   = 5.729e-012      bgidl   = 3e+008          bgisl   = 3e+008          egidl   = 0.1           
 +egisl   = 0.1             alpha0  = 0             
 *========================== isub ==========================*
 +alpha1  = 0               alphaii = 0               betaii0 = 0               betaii1 = 0             
 +betaii2 = 0.1             esatii  = 10000000        lii     = 5e-010          sii0    = 0.5           
 +sii1    = 0.1             sii2    = 0               siid    = 0               beta0   = 30            
 +lintigen= 0             
 *================ generation/recombination ================*
 +ntgen   = 1               aigen   = 0               bigen   = 0             
 ************************************************************
 *                            rf                            *
 ************************************************************
 +xrcrg1  = 12            
 *==================== nonquasi-static =====================*
 +xrcrg2  = 1             
 ************************************************************
 *                         junction                         *
 ************************************************************
 *======================== current =========================*
 +jss     = 0.0001          jsd     = 0.0001          jsws    = 0               jswgs   = 0             
 +njs     = 1               njd     = 1               ijthsfwd= 0.1             ijthdfwd= 0.1           
 +ijthsrev= 0.1             ijthdrev= 0.1             bvs     = 10              bvd     = 10            
 +xjbvs   = 1               xjbvd   = 1               cjs     = 0.0005        
 *====================== capacitance =======================*
 +cjd     = 0.0005          cjsws   = 5e-010          cjswgs  = 0               pbs     = 1             
 +pbd     = 1               pbsws   = 1               mjs     = 0.5             mjd     = 0.5           
 +mjsws2  = 0.33            mjswd2  = 0.33            mjsws   = 0.33            sjs     = 0             
 +sjsws   = 0               sjswgs  = 0               mjs2    = 0.125           mjd2    = 0.125         
 ************************************************************
 *                       capacitance                        *
 ************************************************************
 *====================== capacitance =======================*
 +cgsp    = 0               cgdp    = 0               cdsp    = 0               cfs     = 2.56e-011     
 +cfd     = 2.65e-011       covs    = 2.5e-011        covd    = 2.5e-011        cgsl    = 0             
 +ckappas = 0.6             cgbo    = 0               cgbl    = 0             
 ************************************************************
 *                       temperature                        *
 ************************************************************
 +tbgasub = 0.000702      
 *======================== process =========================*
 +tbgbsub = 1108            kt1     = 0             
 *========================== vth ===========================*
 +kt1l    = 0               ute     = 0             
 *======================== mobility ========================*
 +utl     = -0.0015         ua1     = 0.001032        ud1     = 0               ucste   = -0.00478      
 +at      = -0.00156      
 *========================== vsat ==========================*
 +ptwgt   = 0.004           tmexp   = 0               prt     = 0.001         
 *======================== resistor ========================*
 +iit     = -0.5          
 *========================== isub ==========================*
 +tii     = 0               tgidl   = -0.0003       
 *========================== gidl ==========================*
 +igt     = 2.5           
 *====================== gatecurrent =======================*
 *======================== junction ========================*
 +tcj     = 0               tcjsw   = 0               tcjswg  = 0               tpb     = 0             
 +tpbsw   = 0               tpbswg  = 0               xtis    = 3               xtid    = 3             
 +xtss    = 0.02            xtssws  = 0.02            xtsswgs = 0.02            tnjts   = 0             
 +tnjtssw = 0               tnjtsswg= 0             
 ************************************************************
 *                          noise                           *
 ************************************************************
 +ef      = 1             
 *========================== 1/f ===========================*
 +lintnoi = 0               em      = 41000000        noia    = 6.25e+039       noib    = 3.125e+024    
 +noic    = 87500000        ntnoi   = 1             
  **warning** (C:\synopsys\hl\hp\10nm\10pfet.pm:84)  model pfet            device geometries will not be checked against the limits set bylmin, lmax, wmin and wmax. To enable this check, add a period(.)to the model name(i.e. enable model selector).

 mp2 d g s x pfet lg=lg tfin=fin_width nfin=1

 .ends
  **warning** (C:\synopsys\hl\hp\ptm10hp.sp:23) parameter  lg       is ignored
  **warning** (C:\synopsys\hl\hp\ptm10hp.sp:23) parameter  tfin     is ignored
  **warning** (C:\synopsys\hl\hp\ptm10hp.sp:23) parameter  nfin     is ignored

 .ends

 *xmosfet21 out vinb vdd vdd 100n 100n p10hpfet  
 *xmosfet22 out vinb gnd gnd 10n 10n n10hpfet 




 .options post
 .options autostop
 .options autostop
 .options ingold=2     dcon=1
 .options ingold=2     dcon=1
 .options gshunt=1e-12 rmin=1e-15 
 .options gshunt=1e-12 rmin=1e-15 
 .options abstol=1e-5  absvdc=1e-4 
 .options abstol=1e-5  absvdc=1e-4 
 .options reltol=1e-2  relvdc=1e-2 
 .options reltol=1e-2  relvdc=1e-2 
 .options numdgt=4     pivot=1
 .options numdgt=4     pivot=1
 *.options trcon=0
 *.options trcon=0

 *.lib 'gnrfet.lib' gnrfet

 .param   temp=27

 .global vdd gnd s2b

 .global vdd gnd s2b
 vdd vdd gnd dc 1
 vdd vdd gnd dc 1

 ********************inverter*********************************
 .subckt inv vin vout
 xm1p vout vin vdd vdd 10n 10n p10hpfet
 xm1p vout vin vdd vdd 10n 10n p10hpfet
 xm1n vout vin gnd gnd 10n 10n n10hpfet
 xm1n vout vin gnd gnd 10n 10n n10hpfet
 .ends inv
 .ends inv
 *************************************************************
 *************************************************************

 ********************and gate 2 input************************
 .subckt and vin1 vin2 vout
 xm1p vout1 vin1 vdd vdd 10n 10n p10hpfet
 xm1p vout1 vin1 vdd vdd 10n 10n p10hpfet
 xm2p vout1 vin2 vdd vdd 10n 10n p10hpfet
 xm2p vout1 vin2 vdd vdd 10n 10n p10hpfet
 xm1n vout1 vin1 vn1 gnd 10n 10n n10hpfet
 xm1n vout1 vin1 vn1 gnd 10n 10n n10hpfet
 xm2n vn1  vin2 gnd gnd 10n 10n n10hpfet
 xm2n vn1  vin2 gnd gnd 10n 10n n10hpfet
 xinv1 vout1 vout inv
 xinv1 vout1 vout inv
 .ends and
 .ends and

 ********************alu control*********************************
 .subckt alu_control a b s2 s1 s0 x y

 xinv1 s0 s0b inv

 xinv1 s0 s0b inv
 xinv2 s1 s1b inv
 xinv2 s1 s1b inv
 xinv3 s2 s2b inv
 xinv3 s2 s2b inv
 xinv4 a ab inv
 xinv4 a ab inv
 xinv5 b bb inv
 xinv5 b bb inv

 *y cirvuit*
 xm1p vdp1 s0b vdd vdd 10n 10n p10hpfet
 xm2p vdp2 s1b vdd vdd 10n 10n p10hpfet
 xm2p vdp2 s1b vdd vdd 10n 10n p10hpfet
 xm3p y bb vdp1 vdd 10n 10n p10hpfet
 xm3p y bb vdp1 vdd 10n 10n p10hpfet
 xm4p y b vdp2 vdd 10n 10n p10hpfet
 xm4p y b vdp2 vdd 10n 10n p10hpfet

 xm1n y s0b vsn1 gnd 10n 10n n10hpfet
 xm2n y bb vsn1 gnd 10n 10n n10hpfet
 xm2n y bb vsn1 gnd 10n 10n n10hpfet
 xm3n vsn1 s1b gnd gnd 10n 10n n10hpfet
 xm3n vsn1 s1b gnd gnd 10n 10n n10hpfet
 xm4n vsn1 b gnd gnd 10n 10n n10hpfet
 xm4n vsn1 b gnd gnd 10n 10n n10hpfet


 *x circuit*
 xm5p vdp5 s2 vdd vdd 10n 10n p10hpfet
 xm6p x ab vdp5 vdd 10n 10n p10hpfet
 xm6p x ab vdp5 vdd 10n 10n p10hpfet
 xm7p vdp7 ab vdd vdd 10n 10n p10hpfet
 xm7p vdp7 ab vdd vdd 10n 10n p10hpfet
 xm8p x b vdp7 vdd 10n 10n p10hpfet
 xm8p x b vdp7 vdd 10n 10n p10hpfet
 xm9p vdp9 ab vdd vdd 10n 10n p10hpfet
 xm9p vdp9 ab vdd vdd 10n 10n p10hpfet
 xm10p x s0b vdp9 vdd 10n 10n p10hpfet
 xm10p x s0b vdp9 vdd 10n 10n p10hpfet
 xm11p vdp11 s2b vdd vdd 10n 10n p10hpfet
 xm11p vdp11 s2b vdd vdd 10n 10n p10hpfet
 xm12p vdp12 a vdp11 vdd 10n 10n p10hpfet
 xm12p vdp12 a vdp11 vdd 10n 10n p10hpfet
 xm13p vdp13 s0 vdp12 vdd 10n 10n p10hpfet
 xm13p vdp13 s0 vdp12 vdd 10n 10n p10hpfet
 xm14p x s1 vdp13 vdd 10n 10n p10hpfet
 xm14p x s1 vdp13 vdd 10n 10n p10hpfet

 xm5n x s2 vsn5 gnd 10n 10n n10hpfet
 xm6n x ab vsn5 gnd 10n 10n n10hpfet
 xm6n x ab vsn5 gnd 10n 10n n10hpfet
 xm7n vsn5 ab vsn7 gnd 10n 10n n10hpfet
 xm7n vsn5 ab vsn7 gnd 10n 10n n10hpfet
 xm8n vsn5 b vsn7 gnd 10n 10n n10hpfet
 xm8n vsn5 b vsn7 gnd 10n 10n n10hpfet
 xm9n vsn7 ab vsn9 gnd 10n 10n n10hpfet
 xm9n vsn7 ab vsn9 gnd 10n 10n n10hpfet
 xm10n vsn7 s0b vsn9 gnd 10n 10n n10hpfet
 xm10n vsn7 s0b vsn9 gnd 10n 10n n10hpfet
 xm11n vsn9 s2b gnd gnd 10n 10n n10hpfet
 xm11n vsn9 s2b gnd gnd 10n 10n n10hpfet
 xm12n vsn9 s0 gnd gnd 10n 10n n10hpfet
 xm12n vsn9 s0 gnd gnd 10n 10n n10hpfet
 xm13n vsn9 a gnd gnd 10n 10n n10hpfet
 xm13n vsn9 a gnd gnd 10n 10n n10hpfet
 xm14n vsn9 s1 gnd gnd 10n 10n n10hpfet
 xm14n vsn9 s1 gnd gnd 10n 10n n10hpfet


 .ends alu_control
 *************************************************************
 *************************************************************

 ********************full adder*******************************
 .subckt full_adder a b c sum cout

 xm1p x1 a vdd vdd 10n 10n p10hpfet

 xm1p x1 a vdd vdd 10n 10n p10hpfet
 xm2p x2 b x1 x1 10n 10n p10hpfet 
 xm2p x2 b x1 x1 10n 10n p10hpfet 
 xm3p x3 c vdd vdd 10n 10n p10hpfet
 xm3p x3 c vdd vdd 10n 10n p10hpfet
 xm4p sum x2 x3 x3 10n 10n p10hpfet 
 xm4p sum x2 x3 x3 10n 10n p10hpfet 
 xm5p cout x2 c c 10n 10n p10hpfet 
 xm5p cout x2 c c 10n 10n p10hpfet 

 xm1n x2 a b b 10n 10n n10hpfet 
 xm2n x2 b a a 10n 10n n10hpfet 
 xm2n x2 b a a 10n 10n n10hpfet 
 xm3n sum x2 c c 10n 10n n10hpfet 
 xm3n sum x2 c c 10n 10n n10hpfet 
 xm4n sum c x2 x2 10n 10n n10hpfet 
 xm4n sum c x2 x2 10n 10n n10hpfet 
 xm5n cout x2 a a 10n 10n n10hpfet 
 xm5n cout x2 a a 10n 10n n10hpfet 

 .ends full_adder
 *************************************************************
 *************************************************************

 ********************alu 8 bit********************************
 .subckt alu_des a7 a6 a5 a4 a3 a2 a1 a0 b7 b6 b5 b4 b3 b2 b1 b0 cin s2 s1 s0 out7 out6 out5 out4 out3 out2 out1 out0 cout

 *alu control stage*

 *alu control stage*
 xalu_control1 a0 b0 s2 s1 s0 x0 y0 alu_control
 xalu_control2 a1 b1 s2 s1 s0 x1 y1 alu_control
 xalu_control2 a1 b1 s2 s1 s0 x1 y1 alu_control
 xalu_control3 a2 b2 s2 s1 s0 x2 y2 alu_control
 xalu_control3 a2 b2 s2 s1 s0 x2 y2 alu_control
 xalu_control4 a3 b3 s2 s1 s0 x3 y3 alu_control
 xalu_control4 a3 b3 s2 s1 s0 x3 y3 alu_control
 xalu_control5 a4 b4 s2 s1 s0 x4 y4 alu_control
 xalu_control5 a4 b4 s2 s1 s0 x4 y4 alu_control
 xalu_control6 a5 b5 s2 s1 s0 x5 y5 alu_control
 xalu_control6 a5 b5 s2 s1 s0 x5 y5 alu_control
 xalu_control7 a6 b6 s2 s1 s0 x6 y6 alu_control
 xalu_control7 a6 b6 s2 s1 s0 x6 y6 alu_control
 xalu_control8 a7 b7 s2 s1 s0 x7 y7 alu_control
 xalu_control8 a7 b7 s2 s1 s0 x7 y7 alu_control

 *parallel adder*
 xfa1 x0 y0 cin out0 c01   full_adder
 xand1 s2b c01 c0 and 
 xand1 s2b c01 c0 and 
 xfa2 x1 y1 c0  out1 c11   full_adder
 xfa2 x1 y1 c0  out1 c11   full_adder
 xand2 s2b c11 c1 and 
 xand2 s2b c11 c1 and 
 xfa3 x2 y2 c1  out2 c21   full_adder
 xfa3 x2 y2 c1  out2 c21   full_adder
 xand3 s2b c21 c2 and 
 xand3 s2b c21 c2 and 
 xfa4 x3 y3 c2  out3 c31   full_adder
 xfa4 x3 y3 c2  out3 c31   full_adder
 xand4 s2b c31 c3 and 
 xand4 s2b c31 c3 and 
 xfa5 x4 y4 c3  out4 c41   full_adder
 xfa5 x4 y4 c3  out4 c41   full_adder
 xand5 s2b c41 c4 and 
 xand5 s2b c41 c4 and 
 xfa6 x5 y5 c4  out5 c51   full_adder
 xfa6 x5 y5 c4  out5 c51   full_adder
 xand6 s2b c51 c5 and 
 xand6 s2b c51 c5 and 
 xfa7 x6 y6 c5  out6 c61   full_adder
 xfa7 x6 y6 c5  out6 c61   full_adder
 xand7 s2b c61 c6 and 
 xand7 s2b c61 c6 and 
 xfa8 x7 y7 c6  out7 cout full_adder
 xfa8 x7 y7 c6  out7 cout full_adder


 .ends alu_des
 *************************************************************
 *************************************************************


 va7 va7 gnd pulse 0 1 0.0n 0.1n 0.1n 9n 10n
 va6 va6 gnd pulse 0 1 0.0n 0.1n 0.1n 9n 10n
 va6 va6 gnd pulse 0 1 0.0n 0.1n 0.1n 9n 10n
 va5 va5 gnd pulse 0 1 0.0n 0.1n 0.1n 9n 10n
 va5 va5 gnd pulse 0 1 0.0n 0.1n 0.1n 9n 10n
 va4 va4 gnd pulse 0 1 0.0n 0.1n 0.1n 9n 10n
 va4 va4 gnd pulse 0 1 0.0n 0.1n 0.1n 9n 10n
 va3 va3 gnd pulse 0 1 0.0n 0.1n 0.1n 9n 10n
 va3 va3 gnd pulse 0 1 0.0n 0.1n 0.1n 9n 10n
 va2 va2 gnd pulse 0 1 0.0n 0.1n 0.1n 9n 10n
 va2 va2 gnd pulse 0 1 0.0n 0.1n 0.1n 9n 10n
 va1 va1 gnd pulse 0 1 0.0n 0.1n 0.1n 9n 10n
 va1 va1 gnd pulse 0 1 0.0n 0.1n 0.1n 9n 10n
 va0 va0 gnd pulse 0 1 0.0n 0.1n 0.1n 9n 10n
 va0 va0 gnd pulse 0 1 0.0n 0.1n 0.1n 9n 10n
 vb7 vb7 gnd pulse 1 0 0.0n 0.1n 0.1n 4n 5n
 vb7 vb7 gnd pulse 1 0 0.0n 0.1n 0.1n 4n 5n
 vb6 vb6 gnd pulse 1 0 0.0n 0.1n 0.1n 4n 5n
 vb6 vb6 gnd pulse 1 0 0.0n 0.1n 0.1n 4n 5n
 vb5 vb5 gnd pulse 1 0 0.0n 0.1n 0.1n 4n 5n
 vb5 vb5 gnd pulse 1 0 0.0n 0.1n 0.1n 4n 5n
 vb4 vb4 gnd pulse 1 0 0.0n 0.1n 0.1n 4n 5n
 vb4 vb4 gnd pulse 1 0 0.0n 0.1n 0.1n 4n 5n
 vb3 vb3 gnd pulse 1 0 0.0n 0.1n 0.1n 4n 5n
 vb3 vb3 gnd pulse 1 0 0.0n 0.1n 0.1n 4n 5n
 vb2 vb2 gnd pulse 1 0 0.0n 0.1n 0.1n 4n 5n
 vb2 vb2 gnd pulse 1 0 0.0n 0.1n 0.1n 4n 5n
 vb1 vb1 gnd pulse 1 0 0.0n 0.1n 0.1n 4n 5n
 vb1 vb1 gnd pulse 1 0 0.0n 0.1n 0.1n 4n 5n
 vb0 vb0 gnd pulse 1 0 0.0n 0.1n 0.1n 4n 5n
 vb0 vb0 gnd pulse 1 0 0.0n 0.1n 0.1n 4n 5n
 vcin vcin gnd pulse 0 1 0.0n 0.1n 0.1n 10n 20n
 vcin vcin gnd pulse 0 1 0.0n 0.1n 0.1n 10n 20n
 vs0 vs0 gnd pulse 1 0 0.0n 0.1n 0.1n 2.5n 5n
 vs0 vs0 gnd pulse 1 0 0.0n 0.1n 0.1n 2.5n 5n
 vs1 vs1 gnd pulse 1 0 0.0n 0.1n 0.1n 5n 10n
 vs1 vs1 gnd pulse 1 0 0.0n 0.1n 0.1n 5n 10n
 vs2 vs2 gnd pulse 1 0 0.0n 0.1n 0.1n 10n 20n
 vs2 vs2 gnd pulse 1 0 0.0n 0.1n 0.1n 10n 20n


 *alu instantiation*

 xalu1 va7 va6 va5 va4 va3 va2 va1 va0 vb7 vb6 vb5 vb4 vb3 vb2 vb1 vb0 vcin vs2 vs1 vs0 y7 y6 y5 y4 y3 y2 y1 y0 ycout alu_des

 * transient analysis *

 * transient analysis *
 .op
 .tran 1n 22n
 .tran 1n 22n
 .print power
 .print power


 *.measure tran td1 trig v(vcin) val=0.5 td=20n rise=1 targ v(ycout) val=0.5 rise=1
 .end

1 ****** HSPICE -Z-2007.03 32-BIT  (Feb 28 2007) 18:52:20 02/09/2016 pcnt       
 ******  
  alu                                                                          
  ******  circuit name directory                                               
 ******  
 circuit number to circuit name directory
   number circuitname                     definition         multiplier
        0 main circuit
        1 xalu1.                          alu_des            1.00 
        2 xalu1.xalu_control1.            alu_control        1.00 
        3 xalu1.xalu_control2.            alu_control        1.00 
        4 xalu1.xalu_control3.            alu_control        1.00 
        5 xalu1.xalu_control4.            alu_control        1.00 
        6 xalu1.xalu_control5.            alu_control        1.00 
        7 xalu1.xalu_control6.            alu_control        1.00 
        8 xalu1.xalu_control7.            alu_control        1.00 
        9 xalu1.xalu_control8.            alu_control        1.00 
       10 xalu1.xfa1.                     full_adder         1.00 
       11 xalu1.xand1.                    and                1.00 
       12 xalu1.xfa2.                     full_adder         1.00 
       13 xalu1.xand2.                    and                1.00 
       14 xalu1.xfa3.                     full_adder         1.00 
       15 xalu1.xand3.                    and                1.00 
       16 xalu1.xfa4.                     full_adder         1.00 
       17 xalu1.xand4.                    and                1.00 
       18 xalu1.xfa5.                     full_adder         1.00 
       19 xalu1.xand5.                    and                1.00 
       20 xalu1.xfa6.                     full_adder         1.00 
       21 xalu1.xand6.                    and                1.00 
       22 xalu1.xfa7.                     full_adder         1.00 
       23 xalu1.xand7.                    and                1.00 
       24 xalu1.xfa8.                     full_adder         1.00 
       25 xalu1.xalu_control1.xinv1.      inv                1.00 
       26 xalu1.xalu_control1.xinv2.      inv                1.00 
       27 xalu1.xalu_control1.xinv3.      inv                1.00 
       28 xalu1.xalu_control1.xinv4.      inv                1.00 
       29 xalu1.xalu_control1.xinv5.      inv                1.00 
       30 xalu1.xalu_control1.xm1p.       p10hpfet           1.00 
       31 xalu1.xalu_control1.xm2p.       p10hpfet           1.00 
       32 xalu1.xalu_control1.xm3p.       p10hpfet           1.00 
       33 xalu1.xalu_control1.xm4p.       p10hpfet           1.00 
       34 xalu1.xalu_control1.xm1n.       n10hpfet           1.00 
       35 xalu1.xalu_control1.xm2n.       n10hpfet           1.00 
       36 xalu1.xalu_control1.xm3n.       n10hpfet           1.00 
       37 xalu1.xalu_control1.xm4n.       n10hpfet           1.00 
       38 xalu1.xalu_control1.xm5p.       p10hpfet           1.00 
       39 xalu1.xalu_control1.xm6p.       p10hpfet           1.00 
       40 xalu1.xalu_control1.xm7p.       p10hpfet           1.00 
       41 xalu1.xalu_control1.xm8p.       p10hpfet           1.00 
       42 xalu1.xalu_control1.xm9p.       p10hpfet           1.00 
       43 xalu1.xalu_control1.xm10p.      p10hpfet           1.00 
       44 xalu1.xalu_control1.xm11p.      p10hpfet           1.00 
       45 xalu1.xalu_control1.xm12p.      p10hpfet           1.00 
       46 xalu1.xalu_control1.xm13p.      p10hpfet           1.00 
       47 xalu1.xalu_control1.xm14p.      p10hpfet           1.00 
       48 xalu1.xalu_control1.xm5n.       n10hpfet           1.00 
       49 xalu1.xalu_control1.xm6n.       n10hpfet           1.00 
       50 xalu1.xalu_control1.xm7n.       n10hpfet           1.00 
       51 xalu1.xalu_control1.xm8n.       n10hpfet           1.00 
       52 xalu1.xalu_control1.xm9n.       n10hpfet           1.00 
       53 xalu1.xalu_control1.xm10n.      n10hpfet           1.00 
       54 xalu1.xalu_control1.xm11n.      n10hpfet           1.00 
       55 xalu1.xalu_control1.xm12n.      n10hpfet           1.00 
       56 xalu1.xalu_control1.xm13n.      n10hpfet           1.00 
       57 xalu1.xalu_control1.xm14n.      n10hpfet           1.00 
       58 xalu1.xalu_control2.xinv1.      inv                1.00 
       59 xalu1.xalu_control2.xinv2.      inv                1.00 
       60 xalu1.xalu_control2.xinv3.      inv                1.00 
       61 xalu1.xalu_control2.xinv4.      inv                1.00 
       62 xalu1.xalu_control2.xinv5.      inv                1.00 
       63 xalu1.xalu_control2.xm1p.       p10hpfet           1.00 
       64 xalu1.xalu_control2.xm2p.       p10hpfet           1.00 
       65 xalu1.xalu_control2.xm3p.       p10hpfet           1.00 
       66 xalu1.xalu_control2.xm4p.       p10hpfet           1.00 
       67 xalu1.xalu_control2.xm1n.       n10hpfet           1.00 
       68 xalu1.xalu_control2.xm2n.       n10hpfet           1.00 
       69 xalu1.xalu_control2.xm3n.       n10hpfet           1.00 
       70 xalu1.xalu_control2.xm4n.       n10hpfet           1.00 
       71 xalu1.xalu_control2.xm5p.       p10hpfet           1.00 
       72 xalu1.xalu_control2.xm6p.       p10hpfet           1.00 
       73 xalu1.xalu_control2.xm7p.       p10hpfet           1.00 
       74 xalu1.xalu_control2.xm8p.       p10hpfet           1.00 
       75 xalu1.xalu_control2.xm9p.       p10hpfet           1.00 
       76 xalu1.xalu_control2.xm10p.      p10hpfet           1.00 
       77 xalu1.xalu_control2.xm11p.      p10hpfet           1.00 
       78 xalu1.xalu_control2.xm12p.      p10hpfet           1.00 
       79 xalu1.xalu_control2.xm13p.      p10hpfet           1.00 
       80 xalu1.xalu_control2.xm14p.      p10hpfet           1.00 
       81 xalu1.xalu_control2.xm5n.       n10hpfet           1.00 
       82 xalu1.xalu_control2.xm6n.       n10hpfet           1.00 
       83 xalu1.xalu_control2.xm7n.       n10hpfet           1.00 
       84 xalu1.xalu_control2.xm8n.       n10hpfet           1.00 
       85 xalu1.xalu_control2.xm9n.       n10hpfet           1.00 
       86 xalu1.xalu_control2.xm10n.      n10hpfet           1.00 
       87 xalu1.xalu_control2.xm11n.      n10hpfet           1.00 
       88 xalu1.xalu_control2.xm12n.      n10hpfet           1.00 
       89 xalu1.xalu_control2.xm13n.      n10hpfet           1.00 
       90 xalu1.xalu_control2.xm14n.      n10hpfet           1.00 
       91 xalu1.xalu_control3.xinv1.      inv                1.00 
       92 xalu1.xalu_control3.xinv2.      inv                1.00 
       93 xalu1.xalu_control3.xinv3.      inv                1.00 
       94 xalu1.xalu_control3.xinv4.      inv                1.00 
       95 xalu1.xalu_control3.xinv5.      inv                1.00 
       96 xalu1.xalu_control3.xm1p.       p10hpfet           1.00 
       97 xalu1.xalu_control3.xm2p.       p10hpfet           1.00 
       98 xalu1.xalu_control3.xm3p.       p10hpfet           1.00 
       99 xalu1.xalu_control3.xm4p.       p10hpfet           1.00 
      100 xalu1.xalu_control3.xm1n.       n10hpfet           1.00 
      101 xalu1.xalu_control3.xm2n.       n10hpfet           1.00 
      102 xalu1.xalu_control3.xm3n.       n10hpfet           1.00 
      103 xalu1.xalu_control3.xm4n.       n10hpfet           1.00 
      104 xalu1.xalu_control3.xm5p.       p10hpfet           1.00 
      105 xalu1.xalu_control3.xm6p.       p10hpfet           1.00 
      106 xalu1.xalu_control3.xm7p.       p10hpfet           1.00 
      107 xalu1.xalu_control3.xm8p.       p10hpfet           1.00 
      108 xalu1.xalu_control3.xm9p.       p10hpfet           1.00 
      109 xalu1.xalu_control3.xm10p.      p10hpfet           1.00 
      110 xalu1.xalu_control3.xm11p.      p10hpfet           1.00 
      111 xalu1.xalu_control3.xm12p.      p10hpfet           1.00 
      112 xalu1.xalu_control3.xm13p.      p10hpfet           1.00 
      113 xalu1.xalu_control3.xm14p.      p10hpfet           1.00 
      114 xalu1.xalu_control3.xm5n.       n10hpfet           1.00 
      115 xalu1.xalu_control3.xm6n.       n10hpfet           1.00 
      116 xalu1.xalu_control3.xm7n.       n10hpfet           1.00 
      117 xalu1.xalu_control3.xm8n.       n10hpfet           1.00 
      118 xalu1.xalu_control3.xm9n.       n10hpfet           1.00 
      119 xalu1.xalu_control3.xm10n.      n10hpfet           1.00 
      120 xalu1.xalu_control3.xm11n.      n10hpfet           1.00 
      121 xalu1.xalu_control3.xm12n.      n10hpfet           1.00 
      122 xalu1.xalu_control3.xm13n.      n10hpfet           1.00 
      123 xalu1.xalu_control3.xm14n.      n10hpfet           1.00 
      124 xalu1.xalu_control4.xinv1.      inv                1.00 
      125 xalu1.xalu_control4.xinv2.      inv                1.00 
      126 xalu1.xalu_control4.xinv3.      inv                1.00 
      127 xalu1.xalu_control4.xinv4.      inv                1.00 
      128 xalu1.xalu_control4.xinv5.      inv                1.00 
      129 xalu1.xalu_control4.xm1p.       p10hpfet           1.00 
      130 xalu1.xalu_control4.xm2p.       p10hpfet           1.00 
      131 xalu1.xalu_control4.xm3p.       p10hpfet           1.00 
      132 xalu1.xalu_control4.xm4p.       p10hpfet           1.00 
      133 xalu1.xalu_control4.xm1n.       n10hpfet           1.00 
      134 xalu1.xalu_control4.xm2n.       n10hpfet           1.00 
      135 xalu1.xalu_control4.xm3n.       n10hpfet           1.00 
      136 xalu1.xalu_control4.xm4n.       n10hpfet           1.00 
      137 xalu1.xalu_control4.xm5p.       p10hpfet           1.00 
      138 xalu1.xalu_control4.xm6p.       p10hpfet           1.00 
      139 xalu1.xalu_control4.xm7p.       p10hpfet           1.00 
      140 xalu1.xalu_control4.xm8p.       p10hpfet           1.00 
      141 xalu1.xalu_control4.xm9p.       p10hpfet           1.00 
      142 xalu1.xalu_control4.xm10p.      p10hpfet           1.00 
      143 xalu1.xalu_control4.xm11p.      p10hpfet           1.00 
      144 xalu1.xalu_control4.xm12p.      p10hpfet           1.00 
      145 xalu1.xalu_control4.xm13p.      p10hpfet           1.00 
      146 xalu1.xalu_control4.xm14p.      p10hpfet           1.00 
      147 xalu1.xalu_control4.xm5n.       n10hpfet           1.00 
      148 xalu1.xalu_control4.xm6n.       n10hpfet           1.00 
      149 xalu1.xalu_control4.xm7n.       n10hpfet           1.00 
      150 xalu1.xalu_control4.xm8n.       n10hpfet           1.00 
      151 xalu1.xalu_control4.xm9n.       n10hpfet           1.00 
      152 xalu1.xalu_control4.xm10n.      n10hpfet           1.00 
      153 xalu1.xalu_control4.xm11n.      n10hpfet           1.00 
      154 xalu1.xalu_control4.xm12n.      n10hpfet           1.00 
      155 xalu1.xalu_control4.xm13n.      n10hpfet           1.00 
      156 xalu1.xalu_control4.xm14n.      n10hpfet           1.00 
      157 xalu1.xalu_control5.xinv1.      inv                1.00 
      158 xalu1.xalu_control5.xinv2.      inv                1.00 
      159 xalu1.xalu_control5.xinv3.      inv                1.00 
      160 xalu1.xalu_control5.xinv4.      inv                1.00 
      161 xalu1.xalu_control5.xinv5.      inv                1.00 
      162 xalu1.xalu_control5.xm1p.       p10hpfet           1.00 
      163 xalu1.xalu_control5.xm2p.       p10hpfet           1.00 
      164 xalu1.xalu_control5.xm3p.       p10hpfet           1.00 
      165 xalu1.xalu_control5.xm4p.       p10hpfet           1.00 
      166 xalu1.xalu_control5.xm1n.       n10hpfet           1.00 
      167 xalu1.xalu_control5.xm2n.       n10hpfet           1.00 
      168 xalu1.xalu_control5.xm3n.       n10hpfet           1.00 
      169 xalu1.xalu_control5.xm4n.       n10hpfet           1.00 
      170 xalu1.xalu_control5.xm5p.       p10hpfet           1.00 
      171 xalu1.xalu_control5.xm6p.       p10hpfet           1.00 
      172 xalu1.xalu_control5.xm7p.       p10hpfet           1.00 
      173 xalu1.xalu_control5.xm8p.       p10hpfet           1.00 
      174 xalu1.xalu_control5.xm9p.       p10hpfet           1.00 
      175 xalu1.xalu_control5.xm10p.      p10hpfet           1.00 
      176 xalu1.xalu_control5.xm11p.      p10hpfet           1.00 
      177 xalu1.xalu_control5.xm12p.      p10hpfet           1.00 
      178 xalu1.xalu_control5.xm13p.      p10hpfet           1.00 
      179 xalu1.xalu_control5.xm14p.      p10hpfet           1.00 
      180 xalu1.xalu_control5.xm5n.       n10hpfet           1.00 
      181 xalu1.xalu_control5.xm6n.       n10hpfet           1.00 
      182 xalu1.xalu_control5.xm7n.       n10hpfet           1.00 
      183 xalu1.xalu_control5.xm8n.       n10hpfet           1.00 
      184 xalu1.xalu_control5.xm9n.       n10hpfet           1.00 
      185 xalu1.xalu_control5.xm10n.      n10hpfet           1.00 
      186 xalu1.xalu_control5.xm11n.      n10hpfet           1.00 
      187 xalu1.xalu_control5.xm12n.      n10hpfet           1.00 
      188 xalu1.xalu_control5.xm13n.      n10hpfet           1.00 
      189 xalu1.xalu_control5.xm14n.      n10hpfet           1.00 
      190 xalu1.xalu_control6.xinv1.      inv                1.00 
      191 xalu1.xalu_control6.xinv2.      inv                1.00 
      192 xalu1.xalu_control6.xinv3.      inv                1.00 
      193 xalu1.xalu_control6.xinv4.      inv                1.00 
      194 xalu1.xalu_control6.xinv5.      inv                1.00 
      195 xalu1.xalu_control6.xm1p.       p10hpfet           1.00 
      196 xalu1.xalu_control6.xm2p.       p10hpfet           1.00 
      197 xalu1.xalu_control6.xm3p.       p10hpfet           1.00 
      198 xalu1.xalu_control6.xm4p.       p10hpfet           1.00 
      199 xalu1.xalu_control6.xm1n.       n10hpfet           1.00 
      200 xalu1.xalu_control6.xm2n.       n10hpfet           1.00 
      201 xalu1.xalu_control6.xm3n.       n10hpfet           1.00 
      202 xalu1.xalu_control6.xm4n.       n10hpfet           1.00 
      203 xalu1.xalu_control6.xm5p.       p10hpfet           1.00 
      204 xalu1.xalu_control6.xm6p.       p10hpfet           1.00 
      205 xalu1.xalu_control6.xm7p.       p10hpfet           1.00 
      206 xalu1.xalu_control6.xm8p.       p10hpfet           1.00 
      207 xalu1.xalu_control6.xm9p.       p10hpfet           1.00 
      208 xalu1.xalu_control6.xm10p.      p10hpfet           1.00 
      209 xalu1.xalu_control6.xm11p.      p10hpfet           1.00 
      210 xalu1.xalu_control6.xm12p.      p10hpfet           1.00 
      211 xalu1.xalu_control6.xm13p.      p10hpfet           1.00 
      212 xalu1.xalu_control6.xm14p.      p10hpfet           1.00 
      213 xalu1.xalu_control6.xm5n.       n10hpfet           1.00 
      214 xalu1.xalu_control6.xm6n.       n10hpfet           1.00 
      215 xalu1.xalu_control6.xm7n.       n10hpfet           1.00 
      216 xalu1.xalu_control6.xm8n.       n10hpfet           1.00 
      217 xalu1.xalu_control6.xm9n.       n10hpfet           1.00 
      218 xalu1.xalu_control6.xm10n.      n10hpfet           1.00 
      219 xalu1.xalu_control6.xm11n.      n10hpfet           1.00 
      220 xalu1.xalu_control6.xm12n.      n10hpfet           1.00 
      221 xalu1.xalu_control6.xm13n.      n10hpfet           1.00 
      222 xalu1.xalu_control6.xm14n.      n10hpfet           1.00 
      223 xalu1.xalu_control7.xinv1.      inv                1.00 
      224 xalu1.xalu_control7.xinv2.      inv                1.00 
      225 xalu1.xalu_control7.xinv3.      inv                1.00 
      226 xalu1.xalu_control7.xinv4.      inv                1.00 
      227 xalu1.xalu_control7.xinv5.      inv                1.00 
      228 xalu1.xalu_control7.xm1p.       p10hpfet           1.00 
      229 xalu1.xalu_control7.xm2p.       p10hpfet           1.00 
      230 xalu1.xalu_control7.xm3p.       p10hpfet           1.00 
      231 xalu1.xalu_control7.xm4p.       p10hpfet           1.00 
      232 xalu1.xalu_control7.xm1n.       n10hpfet           1.00 
      233 xalu1.xalu_control7.xm2n.       n10hpfet           1.00 
      234 xalu1.xalu_control7.xm3n.       n10hpfet           1.00 
      235 xalu1.xalu_control7.xm4n.       n10hpfet           1.00 
      236 xalu1.xalu_control7.xm5p.       p10hpfet           1.00 
      237 xalu1.xalu_control7.xm6p.       p10hpfet           1.00 
      238 xalu1.xalu_control7.xm7p.       p10hpfet           1.00 
      239 xalu1.xalu_control7.xm8p.       p10hpfet           1.00 
      240 xalu1.xalu_control7.xm9p.       p10hpfet           1.00 
      241 xalu1.xalu_control7.xm10p.      p10hpfet           1.00 
      242 xalu1.xalu_control7.xm11p.      p10hpfet           1.00 
      243 xalu1.xalu_control7.xm12p.      p10hpfet           1.00 
      244 xalu1.xalu_control7.xm13p.      p10hpfet           1.00 
      245 xalu1.xalu_control7.xm14p.      p10hpfet           1.00 
      246 xalu1.xalu_control7.xm5n.       n10hpfet           1.00 
      247 xalu1.xalu_control7.xm6n.       n10hpfet           1.00 
      248 xalu1.xalu_control7.xm7n.       n10hpfet           1.00 
      249 xalu1.xalu_control7.xm8n.       n10hpfet           1.00 
      250 xalu1.xalu_control7.xm9n.       n10hpfet           1.00 
      251 xalu1.xalu_control7.xm10n.      n10hpfet           1.00 
      252 xalu1.xalu_control7.xm11n.      n10hpfet           1.00 
      253 xalu1.xalu_control7.xm12n.      n10hpfet           1.00 
      254 xalu1.xalu_control7.xm13n.      n10hpfet           1.00 
      255 xalu1.xalu_control7.xm14n.      n10hpfet           1.00 
      256 xalu1.xalu_control8.xinv1.      inv                1.00 
      257 xalu1.xalu_control8.xinv2.      inv                1.00 
      258 xalu1.xalu_control8.xinv3.      inv                1.00 
      259 xalu1.xalu_control8.xinv4.      inv                1.00 
      260 xalu1.xalu_control8.xinv5.      inv                1.00 
      261 xalu1.xalu_control8.xm1p.       p10hpfet           1.00 
      262 xalu1.xalu_control8.xm2p.       p10hpfet           1.00 
      263 xalu1.xalu_control8.xm3p.       p10hpfet           1.00 
      264 xalu1.xalu_control8.xm4p.       p10hpfet           1.00 
      265 xalu1.xalu_control8.xm1n.       n10hpfet           1.00 
      266 xalu1.xalu_control8.xm2n.       n10hpfet           1.00 
      267 xalu1.xalu_control8.xm3n.       n10hpfet           1.00 
      268 xalu1.xalu_control8.xm4n.       n10hpfet           1.00 
      269 xalu1.xalu_control8.xm5p.       p10hpfet           1.00 
      270 xalu1.xalu_control8.xm6p.       p10hpfet           1.00 
      271 xalu1.xalu_control8.xm7p.       p10hpfet           1.00 
      272 xalu1.xalu_control8.xm8p.       p10hpfet           1.00 
      273 xalu1.xalu_control8.xm9p.       p10hpfet           1.00 
      274 xalu1.xalu_control8.xm10p.      p10hpfet           1.00 
      275 xalu1.xalu_control8.xm11p.      p10hpfet           1.00 
      276 xalu1.xalu_control8.xm12p.      p10hpfet           1.00 
      277 xalu1.xalu_control8.xm13p.      p10hpfet           1.00 
      278 xalu1.xalu_control8.xm14p.      p10hpfet           1.00 
      279 xalu1.xalu_control8.xm5n.       n10hpfet           1.00 
      280 xalu1.xalu_control8.xm6n.       n10hpfet           1.00 
      281 xalu1.xalu_control8.xm7n.       n10hpfet           1.00 
      282 xalu1.xalu_control8.xm8n.       n10hpfet           1.00 
      283 xalu1.xalu_control8.xm9n.       n10hpfet           1.00 
      284 xalu1.xalu_control8.xm10n.      n10hpfet           1.00 
      285 xalu1.xalu_control8.xm11n.      n10hpfet           1.00 
      286 xalu1.xalu_control8.xm12n.      n10hpfet           1.00 
      287 xalu1.xalu_control8.xm13n.      n10hpfet           1.00 
      288 xalu1.xalu_control8.xm14n.      n10hpfet           1.00 
      289 xalu1.xfa1.xm1p.                p10hpfet           1.00 
      290 xalu1.xfa1.xm2p.                p10hpfet           1.00 
      291 xalu1.xfa1.xm3p.                p10hpfet           1.00 
      292 xalu1.xfa1.xm4p.                p10hpfet           1.00 
      293 xalu1.xfa1.xm5p.                p10hpfet           1.00 
      294 xalu1.xfa1.xm1n.                n10hpfet           1.00 
      295 xalu1.xfa1.xm2n.                n10hpfet           1.00 
      296 xalu1.xfa1.xm3n.                n10hpfet           1.00 
      297 xalu1.xfa1.xm4n.                n10hpfet           1.00 
      298 xalu1.xfa1.xm5n.                n10hpfet           1.00 
      299 xalu1.xand1.xm1p.               p10hpfet           1.00 
      300 xalu1.xand1.xm2p.               p10hpfet           1.00 
      301 xalu1.xand1.xm1n.               n10hpfet           1.00 
      302 xalu1.xand1.xm2n.               n10hpfet           1.00 
      303 xalu1.xand1.xinv1.              inv                1.00 
      304 xalu1.xfa2.xm1p.                p10hpfet           1.00 
      305 xalu1.xfa2.xm2p.                p10hpfet           1.00 
      306 xalu1.xfa2.xm3p.                p10hpfet           1.00 
      307 xalu1.xfa2.xm4p.                p10hpfet           1.00 
      308 xalu1.xfa2.xm5p.                p10hpfet           1.00 
      309 xalu1.xfa2.xm1n.                n10hpfet           1.00 
      310 xalu1.xfa2.xm2n.                n10hpfet           1.00 
      311 xalu1.xfa2.xm3n.                n10hpfet           1.00 
      312 xalu1.xfa2.xm4n.                n10hpfet           1.00 
      313 xalu1.xfa2.xm5n.                n10hpfet           1.00 
      314 xalu1.xand2.xm1p.               p10hpfet           1.00 
      315 xalu1.xand2.xm2p.               p10hpfet           1.00 
      316 xalu1.xand2.xm1n.               n10hpfet           1.00 
      317 xalu1.xand2.xm2n.               n10hpfet           1.00 
      318 xalu1.xand2.xinv1.              inv                1.00 
      319 xalu1.xfa3.xm1p.                p10hpfet           1.00 
      320 xalu1.xfa3.xm2p.                p10hpfet           1.00 
      321 xalu1.xfa3.xm3p.                p10hpfet           1.00 
      322 xalu1.xfa3.xm4p.                p10hpfet           1.00 
      323 xalu1.xfa3.xm5p.                p10hpfet           1.00 
      324 xalu1.xfa3.xm1n.                n10hpfet           1.00 
      325 xalu1.xfa3.xm2n.                n10hpfet           1.00 
      326 xalu1.xfa3.xm3n.                n10hpfet           1.00 
      327 xalu1.xfa3.xm4n.                n10hpfet           1.00 
      328 xalu1.xfa3.xm5n.                n10hpfet           1.00 
      329 xalu1.xand3.xm1p.               p10hpfet           1.00 
      330 xalu1.xand3.xm2p.               p10hpfet           1.00 
      331 xalu1.xand3.xm1n.               n10hpfet           1.00 
      332 xalu1.xand3.xm2n.               n10hpfet           1.00 
      333 xalu1.xand3.xinv1.              inv                1.00 
      334 xalu1.xfa4.xm1p.                p10hpfet           1.00 
      335 xalu1.xfa4.xm2p.                p10hpfet           1.00 
      336 xalu1.xfa4.xm3p.                p10hpfet           1.00 
      337 xalu1.xfa4.xm4p.                p10hpfet           1.00 
      338 xalu1.xfa4.xm5p.                p10hpfet           1.00 
      339 xalu1.xfa4.xm1n.                n10hpfet           1.00 
      340 xalu1.xfa4.xm2n.                n10hpfet           1.00 
      341 xalu1.xfa4.xm3n.                n10hpfet           1.00 
      342 xalu1.xfa4.xm4n.                n10hpfet           1.00 
      343 xalu1.xfa4.xm5n.                n10hpfet           1.00 
      344 xalu1.xand4.xm1p.               p10hpfet           1.00 
      345 xalu1.xand4.xm2p.               p10hpfet           1.00 
      346 xalu1.xand4.xm1n.               n10hpfet           1.00 
      347 xalu1.xand4.xm2n.               n10hpfet           1.00 
      348 xalu1.xand4.xinv1.              inv                1.00 
      349 xalu1.xfa5.xm1p.                p10hpfet           1.00 
      350 xalu1.xfa5.xm2p.                p10hpfet           1.00 
      351 xalu1.xfa5.xm3p.                p10hpfet           1.00 
      352 xalu1.xfa5.xm4p.                p10hpfet           1.00 
      353 xalu1.xfa5.xm5p.                p10hpfet           1.00 
      354 xalu1.xfa5.xm1n.                n10hpfet           1.00 
      355 xalu1.xfa5.xm2n.                n10hpfet           1.00 
      356 xalu1.xfa5.xm3n.                n10hpfet           1.00 
      357 xalu1.xfa5.xm4n.                n10hpfet           1.00 
      358 xalu1.xfa5.xm5n.                n10hpfet           1.00 
      359 xalu1.xand5.xm1p.               p10hpfet           1.00 
      360 xalu1.xand5.xm2p.               p10hpfet           1.00 
      361 xalu1.xand5.xm1n.               n10hpfet           1.00 
      362 xalu1.xand5.xm2n.               n10hpfet           1.00 
      363 xalu1.xand5.xinv1.              inv                1.00 
      364 xalu1.xfa6.xm1p.                p10hpfet           1.00 
      365 xalu1.xfa6.xm2p.                p10hpfet           1.00 
      366 xalu1.xfa6.xm3p.                p10hpfet           1.00 
      367 xalu1.xfa6.xm4p.                p10hpfet           1.00 
      368 xalu1.xfa6.xm5p.                p10hpfet           1.00 
      369 xalu1.xfa6.xm1n.                n10hpfet           1.00 
      370 xalu1.xfa6.xm2n.                n10hpfet           1.00 
      371 xalu1.xfa6.xm3n.                n10hpfet           1.00 
      372 xalu1.xfa6.xm4n.                n10hpfet           1.00 
      373 xalu1.xfa6.xm5n.                n10hpfet           1.00 
      374 xalu1.xand6.xm1p.               p10hpfet           1.00 
      375 xalu1.xand6.xm2p.               p10hpfet           1.00 
      376 xalu1.xand6.xm1n.               n10hpfet           1.00 
      377 xalu1.xand6.xm2n.               n10hpfet           1.00 
      378 xalu1.xand6.xinv1.              inv                1.00 
      379 xalu1.xfa7.xm1p.                p10hpfet           1.00 
      380 xalu1.xfa7.xm2p.                p10hpfet           1.00 
      381 xalu1.xfa7.xm3p.                p10hpfet           1.00 
      382 xalu1.xfa7.xm4p.                p10hpfet           1.00 
      383 xalu1.xfa7.xm5p.                p10hpfet           1.00 
      384 xalu1.xfa7.xm1n.                n10hpfet           1.00 
      385 xalu1.xfa7.xm2n.                n10hpfet           1.00 
      386 xalu1.xfa7.xm3n.                n10hpfet           1.00 
      387 xalu1.xfa7.xm4n.                n10hpfet           1.00 
      388 xalu1.xfa7.xm5n.                n10hpfet           1.00 
      389 xalu1.xand7.xm1p.               p10hpfet           1.00 
      390 xalu1.xand7.xm2p.               p10hpfet           1.00 
      391 xalu1.xand7.xm1n.               n10hpfet           1.00 
      392 xalu1.xand7.xm2n.               n10hpfet           1.00 
      393 xalu1.xand7.xinv1.              inv                1.00 
      394 xalu1.xfa8.xm1p.                p10hpfet           1.00 
      395 xalu1.xfa8.xm2p.                p10hpfet           1.00 
      396 xalu1.xfa8.xm3p.                p10hpfet           1.00 
      397 xalu1.xfa8.xm4p.                p10hpfet           1.00 
      398 xalu1.xfa8.xm5p.                p10hpfet           1.00 
      399 xalu1.xfa8.xm1n.                n10hpfet           1.00 
      400 xalu1.xfa8.xm2n.                n10hpfet           1.00 
      401 xalu1.xfa8.xm3n.                n10hpfet           1.00 
      402 xalu1.xfa8.xm4n.                n10hpfet           1.00 
      403 xalu1.xfa8.xm5n.                n10hpfet           1.00 
      404 xalu1.xalu_control1.xinv1.xm1p. p10hpfet           1.00 
      405 xalu1.xalu_control1.xinv1.xm1n. n10hpfet           1.00 
      406 xalu1.xalu_control1.xinv2.xm1p. p10hpfet           1.00 
      407 xalu1.xalu_control1.xinv2.xm1n. n10hpfet           1.00 
      408 xalu1.xalu_control1.xinv3.xm1p. p10hpfet           1.00 
      409 xalu1.xalu_control1.xinv3.xm1n. n10hpfet           1.00 
      410 xalu1.xalu_control1.xinv4.xm1p. p10hpfet           1.00 
      411 xalu1.xalu_control1.xinv4.xm1n. n10hpfet           1.00 
      412 xalu1.xalu_control1.xinv5.xm1p. p10hpfet           1.00 
      413 xalu1.xalu_control1.xinv5.xm1n. n10hpfet           1.00 
      414 xalu1.xalu_control2.xinv1.xm1p. p10hpfet           1.00 
      415 xalu1.xalu_control2.xinv1.xm1n. n10hpfet           1.00 
      416 xalu1.xalu_control2.xinv2.xm1p. p10hpfet           1.00 
      417 xalu1.xalu_control2.xinv2.xm1n. n10hpfet           1.00 
      418 xalu1.xalu_control2.xinv3.xm1p. p10hpfet           1.00 
      419 xalu1.xalu_control2.xinv3.xm1n. n10hpfet           1.00 
      420 xalu1.xalu_control2.xinv4.xm1p. p10hpfet           1.00 
      421 xalu1.xalu_control2.xinv4.xm1n. n10hpfet           1.00 
      422 xalu1.xalu_control2.xinv5.xm1p. p10hpfet           1.00 
      423 xalu1.xalu_control2.xinv5.xm1n. n10hpfet           1.00 
      424 xalu1.xalu_control3.xinv1.xm1p. p10hpfet           1.00 
      425 xalu1.xalu_control3.xinv1.xm1n. n10hpfet           1.00 
      426 xalu1.xalu_control3.xinv2.xm1p. p10hpfet           1.00 
      427 xalu1.xalu_control3.xinv2.xm1n. n10hpfet           1.00 
      428 xalu1.xalu_control3.xinv3.xm1p. p10hpfet           1.00 
      429 xalu1.xalu_control3.xinv3.xm1n. n10hpfet           1.00 
      430 xalu1.xalu_control3.xinv4.xm1p. p10hpfet           1.00 
      431 xalu1.xalu_control3.xinv4.xm1n. n10hpfet           1.00 
      432 xalu1.xalu_control3.xinv5.xm1p. p10hpfet           1.00 
      433 xalu1.xalu_control3.xinv5.xm1n. n10hpfet           1.00 
      434 xalu1.xalu_control4.xinv1.xm1p. p10hpfet           1.00 
      435 xalu1.xalu_control4.xinv1.xm1n. n10hpfet           1.00 
      436 xalu1.xalu_control4.xinv2.xm1p. p10hpfet           1.00 
      437 xalu1.xalu_control4.xinv2.xm1n. n10hpfet           1.00 
      438 xalu1.xalu_control4.xinv3.xm1p. p10hpfet           1.00 
      439 xalu1.xalu_control4.xinv3.xm1n. n10hpfet           1.00 
      440 xalu1.xalu_control4.xinv4.xm1p. p10hpfet           1.00 
      441 xalu1.xalu_control4.xinv4.xm1n. n10hpfet           1.00 
      442 xalu1.xalu_control4.xinv5.xm1p. p10hpfet           1.00 
      443 xalu1.xalu_control4.xinv5.xm1n. n10hpfet           1.00 
      444 xalu1.xalu_control5.xinv1.xm1p. p10hpfet           1.00 
      445 xalu1.xalu_control5.xinv1.xm1n. n10hpfet           1.00 
      446 xalu1.xalu_control5.xinv2.xm1p. p10hpfet           1.00 
      447 xalu1.xalu_control5.xinv2.xm1n. n10hpfet           1.00 
      448 xalu1.xalu_control5.xinv3.xm1p. p10hpfet           1.00 
      449 xalu1.xalu_control5.xinv3.xm1n. n10hpfet           1.00 
      450 xalu1.xalu_control5.xinv4.xm1p. p10hpfet           1.00 
      451 xalu1.xalu_control5.xinv4.xm1n. n10hpfet           1.00 
      452 xalu1.xalu_control5.xinv5.xm1p. p10hpfet           1.00 
      453 xalu1.xalu_control5.xinv5.xm1n. n10hpfet           1.00 
      454 xalu1.xalu_control6.xinv1.xm1p. p10hpfet           1.00 
      455 xalu1.xalu_control6.xinv1.xm1n. n10hpfet           1.00 
      456 xalu1.xalu_control6.xinv2.xm1p. p10hpfet           1.00 
      457 xalu1.xalu_control6.xinv2.xm1n. n10hpfet           1.00 
      458 xalu1.xalu_control6.xinv3.xm1p. p10hpfet           1.00 
      459 xalu1.xalu_control6.xinv3.xm1n. n10hpfet           1.00 
      460 xalu1.xalu_control6.xinv4.xm1p. p10hpfet           1.00 
      461 xalu1.xalu_control6.xinv4.xm1n. n10hpfet           1.00 
      462 xalu1.xalu_control6.xinv5.xm1p. p10hpfet           1.00 
      463 xalu1.xalu_control6.xinv5.xm1n. n10hpfet           1.00 
      464 xalu1.xalu_control7.xinv1.xm1p. p10hpfet           1.00 
      465 xalu1.xalu_control7.xinv1.xm1n. n10hpfet           1.00 
      466 xalu1.xalu_control7.xinv2.xm1p. p10hpfet           1.00 
      467 xalu1.xalu_control7.xinv2.xm1n. n10hpfet           1.00 
      468 xalu1.xalu_control7.xinv3.xm1p. p10hpfet           1.00 
      469 xalu1.xalu_control7.xinv3.xm1n. n10hpfet           1.00 
      470 xalu1.xalu_control7.xinv4.xm1p. p10hpfet           1.00 
      471 xalu1.xalu_control7.xinv4.xm1n. n10hpfet           1.00 
      472 xalu1.xalu_control7.xinv5.xm1p. p10hpfet           1.00 
      473 xalu1.xalu_control7.xinv5.xm1n. n10hpfet           1.00 
      474 xalu1.xalu_control8.xinv1.xm1p. p10hpfet           1.00 
      475 xalu1.xalu_control8.xinv1.xm1n. n10hpfet           1.00 
      476 xalu1.xalu_control8.xinv2.xm1p. p10hpfet           1.00 
      477 xalu1.xalu_control8.xinv2.xm1n. n10hpfet           1.00 
      478 xalu1.xalu_control8.xinv3.xm1p. p10hpfet           1.00 
      479 xalu1.xalu_control8.xinv3.xm1n. n10hpfet           1.00 
      480 xalu1.xalu_control8.xinv4.xm1p. p10hpfet           1.00 
      481 xalu1.xalu_control8.xinv4.xm1n. n10hpfet           1.00 
      482 xalu1.xalu_control8.xinv5.xm1p. p10hpfet           1.00 
      483 xalu1.xalu_control8.xinv5.xm1n. n10hpfet           1.00 
      484 xalu1.xand1.xinv1.xm1p.         p10hpfet           1.00 
      485 xalu1.xand1.xinv1.xm1n.         n10hpfet           1.00 
      486 xalu1.xand2.xinv1.xm1p.         p10hpfet           1.00 
      487 xalu1.xand2.xinv1.xm1n.         n10hpfet           1.00 
      488 xalu1.xand3.xinv1.xm1p.         p10hpfet           1.00 
      489 xalu1.xand3.xinv1.xm1n.         n10hpfet           1.00 
      490 xalu1.xand4.xinv1.xm1p.         p10hpfet           1.00 
      491 xalu1.xand4.xinv1.xm1n.         n10hpfet           1.00 
      492 xalu1.xand5.xinv1.xm1p.         p10hpfet           1.00 
      493 xalu1.xand5.xinv1.xm1n.         n10hpfet           1.00 
      494 xalu1.xand6.xinv1.xm1p.         p10hpfet           1.00 
      495 xalu1.xand6.xinv1.xm1n.         n10hpfet           1.00 
      496 xalu1.xand7.xinv1.xm1p.         p10hpfet           1.00 
      497 xalu1.xand7.xinv1.xm1n.         n10hpfet           1.00 
1 ****** HSPICE -Z-2007.03 32-BIT  (Feb 28 2007) 18:52:20 02/09/2016 pcnt       
 ******  
  alu                                                                          
  ******  mos   model parameters           tnom=  25.000 temp=  25.000         
 ******  
 
Model Name: pfet  

 BSIMSOI4 PD (Level 70)

    wmax =      1 m
    wmin =      0 m
    lmax = 3e-008 m
    lmin = 1e-008 m
    xw =      0 m
    xwref =      0 m
    xl =      0 m
    xlref =      0 m
    capmod = 0
    mobmod = 1
    paramchk = 0
    binunit = 1
    version =      4 
    tox = 1e-008 m
    toxm = 1e-008 m
    dtoxcv =      0 m
    cdsc =  0.032 F/M^2
    cdscb =      0 F/M^2
    cdscd =  0.007 F/M^2
    cit = 1.3e-005 F/M^2
    nfactor =      1 
    vsat = 1.29e+005 m/sec
    at = -0.00156 m/sec
    a0 =      1 
    ags =      0 1/V
    a1 =      0 1/V
    a2 =      1 
    keta =   -0.6 1/V
    nsub = 6e+016 1/cm3
    nch = 1.7e+017 1/cm3
    ngate =      0 1/cm3
    gamma1 =      0 V^1/2
    gamma2 =      0 V^1/2
    vbx =      0 V
    vbm =     -3 V
    xt = 1.55e-007 m
    k1 =      0 V^1/2
    kt1 =      0 V
    kt1l =      0 V*m
    kt2 =  0.022 
    k2 =      0 
    k3 =      0 
    k3b =      0 1/V
    w0 = 2.5e-006 m
    lpe0 = 5e-009 m
    lpeb =      0 m
    dvt0 =   0.01 
    dvt1 =   0.69 
    dvt2 = -0.032 1/V
    dvt0w =      0 
    dvt1w = 5.3e+006 
    dvt2w = -0.032 1/V
    drout =   1.06 
    dsub =    0.9 
    vth0 =   -0.7 V
    ua =    0.3 m/V
    ua1 = 0.001032 m/V
    ub = 5.87e-019 (m/V)^2
    ub1 = -7.61e-018 (m/V)^2
    uc = -4.65e-011 1/V
    uc1 = -5.6e-011 1/V
    u0 = 0.0376 m^2/(V-sec)
    ute =      0 
    voff =  -0.08 V
    tnom =  573.3 K
    cgso = 2.072e-010 F/m
    cgdo = 2.072e-010 F/m
    xpart =      0 
    delta =   0.01 
    rsh =      0 ohm/square
    rdsw =    100 ohm-um^WR
    rsw =      0 ohm-um^WR
    rdw =      0 ohm-um^WR
    rswmin =      0 ohm-um^WR
    rdwmin =      0 ohm-um^WR
    prwg =      0 1/V^1/2
    prwb =      0 1/V
    prt =  0.001 ohm-um
    eta0 =   0.93 
    etab =  -0.07 1/V
    pclm =    0.2 
    pdiblc1 =   0.39 
    pdiblc2 = 0.0086 
    pdiblcb =      0 
    pvag =      1 
    shmod = 0
    tbox = 3e-007 m
    tsi = 1e-007 m
    xj = 1e-007 m
    rth0 =   0.01 m*C/W
    cth0 = 1e-005 W*sec/(m*C)
    egidl =    0.1 V
    agidl = 5.729e-012 1/ohm
    bgidl = 3e+008 V/m
    cgidl =      0 V^3
    ndiode =      1 
    ndioded =      1 
    xbjt =      1 
    xdif =      1 
    xrec =      1 
    xtun =      0 
    xdifd =      1 
    xrecd =      1 
    xtund =      0 
    pbswg =    0.7 V
    pbswgd =    0.7 V
    mjswg =    0.5 V
    mjswgd =    0.5 V
    cjswg = 1e-010 F/m^2
    cjswgd = 1e-010 F/m^2
    lint = 6e-010 m
    ll =      0 m^LLN
    llc =      0 m^LLN
    lln =      1 
    lw =      0 m^LWN
    lwc =      0 m^LWN
    lwn =      1 
    lwl =      0 m^(LWN+LLN)
    lwlc =      0 m^(LWN+LLN)
    wr =      1 
    wint =      0 m
    dwg =      0 m/V
    dwb =      0 m/V^1/2
    wl =      0 m^WLN
    wlc =      0 m^WLN
    wln =      1 
    ww =      0 m^WWN
    wwc =      0 m^WWN
    wwn =      1 
    wwl =      0 m^(WWN+WLN)
    wwlc =      0 m^(WWN+WLN)
    b0 =      0 m
    b1 =      0 m
    cgsl =      0 F/m
    cgdl =      0 F/m
    ckappa =    0.6 F/m
    cf = 8.164e-011 F/m
    clc = 1e-008 m
    cle =      0 
    dwc =      0 m
    dlc =      0 m
    alpha0 =      0 m/V
    noia = 6.25e+039 
    noib = 3.125e+024 
    noic = 8.75e+007 
    fnoimod = 1
    tnoimod = 0
    tnoia =    1.5 
    tnoib =    3.5 
    rnoia =  0.577 
    rnoib =   0.37 
    ntnoi =      1 
    saref = 1e-006 m
    sbref = 1e-006 m
    wlod =      0 m
    ku0 =      0 m
    kvsat =      0 m
    kvth0 =      0 Vm
    tku0 =      0 
    llodku0 =      0 
    wlodku0 =      0 
    llodvth =      0 
    wlodvth =      0 
    stk2 =      0 m
    lodk2 =      1 
    steta0 =      0 m
    lodeta0 =      1 
    gbmin = 1e-012 mho
    rbdb =     50 ohm
    rbsb =     50 ohm
    bf =      2 
    w0flk = 1e-005 
    frbody =      1 
    dvtp0 =      0 m
    dvtp1 =      0 1/V
    minv =      0 
    pdits = 1e-020 1/V
    pditsl =      0 m
    pditsd =      0 1/V
    fprout =      0 (V/m)^0.5
    em = 4.1e+007 
    ef =      1 
    af =      1 
    kf =      0 
    noif =      1 
    k1w1 =      0 m
    k1w2 =      0 m
    ketas =      0 V
    dwbc =      0 m
    beta0 =     30 1/V
    beta1 =      0 
    beta2 =    0.1 V
    vdsatii0 =    0.9 V
    tii =      0 
    lii = 5e-010 
    sii0 =    0.5 1/V
    sii1 =    0.1 1/V
    sii2 =      0 
    siid =      0 1/V
    fbjtii =      0 
    esatii = 1e+007 V/m
    ntun =     10 
    ntund =     10 
    nrecf0 =      2 
    nrecf0d =      2 
    nrecr0 =     10 
    nrecr0d =     10 
    isbjt = 1e-006 A/m^2
    idbjt = 1e-006 A/m^2
    isdif =      0 A/m^2
    iddif =      0 A/m^2
    isrec = 1e-005 A/m^2
    idrec = 1e-005 A/m^2
    istun =      0 A/m^2
    idtun =      0 A/m^2
    ln = 2e-006 m
    vrec0 =      0 V
    vrec0d =      0 V
    vtun0 =      0 V
    vtun0d =      0 V
    nbjt =      1 
    lbjt0 = 2e-007 m
    ldif0 =      1 
    vabjt =     10 V
    aely =      0 V/m
    ahli =      0 
    ahlid =      0 
    rbody =      0 ohm/m^2
    rbsh =      0 ohm/m^2
    cgeo =      0 F/m
    tt = 1e-012 second
    ndif =     -1 
    vsdfb =      0 V
    vsdth =      0 V
    csdmin =      0 V
    asd =    0.3 
    csdesw =      0 F/m
    ntrecf =      0 
    ntrecr =      0 
    dlcb =      0 m
    fbody =      1 
    tcjswg =      0 1/K
    tcjswgd =      0 1/K
    tpbswg =      0 V/K
    tpbswgd =      0 V/K
    acde =      1 m/V
    moin =     15 V^1/2
    noff =      1 
    delvt =      0 V
    kb1 =      1 
    dlbg =      0 m
    igbmod = 1
    igcmod = 1
    toxqm = 1e-008 m
    wth0 =      0 m
    rhalo = 1e+015 ohm/m
    ntox =      1 
    toxref = 2.5e-009 m
    ebg =    1.2 V
    vevb =  0.075 
    alphagb1 =   0.35 1/V
    betagb1 =   0.03 1/V^2
    vgb1 =    300 V
    vecb =  0.026 
    alphagb2 =   0.43 1/V
    betagb2 =   0.05 1/V^2
    vgb2 =     17 V
    voxh =      5 
    deltavox =  0.005 
    aigc = 0.0136 
    bigc = 0.00171 
    cigc =  0.075 
    aigsd =   0.31 
    bigsd =  0.024 
    cigsd =   0.03 
    nigc =      1 
    pigcd =      1 
    poxedge =      1 
    dlcig = 6e-010 m
    soimod = 0
    vbs0pd =      0 V
    vbs0fd =    0.5 V
    vbsa =      0 V
    nofffd =      1 
    vofffd =      0 V
    k1b =      1 
    k2b =      0 
    dk2b =      0 
    dvbd0 =      0 
    dvbd1 =      0 
    moinfd =   1000 
    rgatemod = 0
    xrcrg1 =     12 
    xrcrg2 =      1 
    rshg =    0.1 ohm/square
    ngcon =      1 
    xgw =      0 m
    xgl =      0 m
    rbodymod = 0
    rdsmod = 1
 

 
Model Name: pfet  

 BSIMSOI4 PD (Level 70)

    wmax =      1 m
    wmin =      0 m
    lmax = 3e-008 m
    lmin = 1e-008 m
    xw =      0 m
    xwref =      0 m
    xl =      0 m
    xlref =      0 m
    capmod = 0
    mobmod = 1
    paramchk = 0
    binunit = 1
    version =      4 
    tox = 1e-008 m
    toxm = 1e-008 m
    dtoxcv =      0 m
    cdsc =  0.032 F/M^2
    cdscb =      0 F/M^2
    cdscd =  0.007 F/M^2
    cit = 1.3e-005 F/M^2
    nfactor =      1 
    vsat = 1.29e+005 m/sec
    at = -0.00156 m/sec
    a0 =      1 
    ags =      0 1/V
    a1 =      0 1/V
    a2 =      1 
    keta =   -0.6 1/V
    nsub = 6e+016 1/cm3
    nch = 1.7e+017 1/cm3
    ngate =      0 1/cm3
    gamma1 =      0 V^1/2
    gamma2 =      0 V^1/2
    vbx =      0 V
    vbm =     -3 V
    xt = 1.55e-007 m
    k1 =      0 V^1/2
    kt1 =      0 V
    kt1l =      0 V*m
    kt2 =  0.022 
    k2 =      0 
    k3 =      0 
    k3b =      0 1/V
    w0 = 2.5e-006 m
    lpe0 = 5e-009 m
    lpeb =      0 m
    dvt0 =   0.01 
    dvt1 =   0.69 
    dvt2 = -0.032 1/V
    dvt0w =      0 
    dvt1w = 5.3e+006 
    dvt2w = -0.032 1/V
    drout =   1.06 
    dsub =    0.9 
    vth0 =   -0.7 V
    ua =    0.3 m/V
    ua1 = 0.001032 m/V
    ub = 5.87e-019 (m/V)^2
    ub1 = -7.61e-018 (m/V)^2
    uc = -4.65e-011 1/V
    uc1 = -5.6e-011 1/V
    u0 = 0.0376 m^2/(V-sec)
    ute =      0 
    voff =  -0.08 V
    tnom =  573.3 K
    cgso = 2.072e-010 F/m
    cgdo = 2.072e-010 F/m
    xpart =      0 
    delta =   0.01 
    rsh =      0 ohm/square
    rdsw =    100 ohm-um^WR
    rsw =      0 ohm-um^WR
    rdw =      0 ohm-um^WR
    rswmin =      0 ohm-um^WR
    rdwmin =      0 ohm-um^WR
    prwg =      0 1/V^1/2
    prwb =      0 1/V
    prt =  0.001 ohm-um
    eta0 =   0.93 
    etab =  -0.07 1/V
    pclm =    0.2 
    pdiblc1 =   0.39 
    pdiblc2 = 0.0086 
    pdiblcb =      0 
    pvag =      1 
    shmod = 0
    tbox = 3e-007 m
    tsi = 1e-007 m
    xj = 1e-007 m
    rth0 =   0.01 m*C/W
    cth0 = 1e-005 W*sec/(m*C)
    egidl =    0.1 V
    agidl = 5.729e-012 1/ohm
    bgidl = 3e+008 V/m
    cgidl =      0 V^3
    ndiode =      1 
    ndioded =      1 
    xbjt =      1 
    xdif =      1 
    xrec =      1 
    xtun =      0 
    xdifd =      1 
    xrecd =      1 
    xtund =      0 
    pbswg =    0.7 V
    pbswgd =    0.7 V
    mjswg =    0.5 V
    mjswgd =    0.5 V
    cjswg = 1e-010 F/m^2
    cjswgd = 1e-010 F/m^2
    lint = 6e-010 m
    ll =      0 m^LLN
    llc =      0 m^LLN
    lln =      1 
    lw =      0 m^LWN
    lwc =      0 m^LWN
    lwn =      1 
    lwl =      0 m^(LWN+LLN)
    lwlc =      0 m^(LWN+LLN)
    wr =      1 
    wint =      0 m
    dwg =      0 m/V
    dwb =      0 m/V^1/2
    wl =      0 m^WLN
    wlc =      0 m^WLN
    wln =      1 
    ww =      0 m^WWN
    wwc =      0 m^WWN
    wwn =      1 
    wwl =      0 m^(WWN+WLN)
    wwlc =      0 m^(WWN+WLN)
    b0 =      0 m
    b1 =      0 m
    cgsl =      0 F/m
    cgdl =      0 F/m
    ckappa =    0.6 F/m
    cf = 8.164e-011 F/m
    clc = 1e-008 m
    cle =      0 
    dwc =      0 m
    dlc =      0 m
    alpha0 =      0 m/V
    noia = 6.25e+039 
    noib = 3.125e+024 
    noic = 8.75e+007 
    fnoimod = 1
    tnoimod = 0
    tnoia =    1.5 
    tnoib =    3.5 
    rnoia =  0.577 
    rnoib =   0.37 
    ntnoi =      1 
    saref = 1e-006 m
    sbref = 1e-006 m
    wlod =      0 m
    ku0 =      0 m
    kvsat =      0 m
    kvth0 =      0 Vm
    tku0 =      0 
    llodku0 =      0 
    wlodku0 =      0 
    llodvth =      0 
    wlodvth =      0 
    stk2 =      0 m
    lodk2 =      1 
    steta0 =      0 m
    lodeta0 =      1 
    gbmin = 1e-012 mho
    rbdb =     50 ohm
    rbsb =     50 ohm
    bf =      2 
    w0flk = 1e-005 
    frbody =      1 
    dvtp0 =      0 m
    dvtp1 =      0 1/V
    minv =      0 
    pdits = 1e-020 1/V
    pditsl =      0 m
    pditsd =      0 1/V
    fprout =      0 (V/m)^0.5
    em = 4.1e+007 
    ef =      1 
    af =      1 
    kf =      0 
    noif =      1 
    k1w1 =      0 m
    k1w2 =      0 m
    ketas =      0 V
    dwbc =      0 m
    beta0 =     30 1/V
    beta1 =      0 
    beta2 =    0.1 V
    vdsatii0 =    0.9 V
    tii =      0 
    lii = 5e-010 
    sii0 =    0.5 1/V
    sii1 =    0.1 1/V
    sii2 =      0 
    siid =      0 1/V
    fbjtii =      0 
    esatii = 1e+007 V/m
    ntun =     10 
    ntund =     10 
    nrecf0 =      2 
    nrecf0d =      2 
    nrecr0 =     10 
    nrecr0d =     10 
    isbjt = 1e-006 A/m^2
    idbjt = 1e-006 A/m^2
    isdif =      0 A/m^2
    iddif =      0 A/m^2
    isrec = 1e-005 A/m^2
    idrec = 1e-005 A/m^2
    istun =      0 A/m^2
    idtun =      0 A/m^2
    ln = 2e-006 m
    vrec0 =      0 V
    vrec0d =      0 V
    vtun0 =      0 V
    vtun0d =      0 V
    nbjt =      1 
    lbjt0 = 2e-007 m
    ldif0 =      1 
    vabjt =     10 V
    aely =      0 V/m
    ahli =      0 
    ahlid =      0 
    rbody =      0 ohm/m^2
    rbsh =      0 ohm/m^2
    cgeo =      0 F/m
    tt = 1e-012 second
    ndif =     -1 
    vsdfb =      0 V
    vsdth =      0 V
    csdmin =      0 V
    asd =    0.3 
    csdesw =      0 F/m
    ntrecf =      0 
    ntrecr =      0 
    dlcb =      0 m
    fbody =      1 
    tcjswg =      0 1/K
    tcjswgd =      0 1/K
    tpbswg =      0 V/K
    tpbswgd =      0 V/K
    acde =      1 m/V
    moin =     15 V^1/2
    noff =      1 
    delvt =      0 V
    kb1 =      1 
    dlbg =      0 m
    igbmod = 1
    igcmod = 1
    toxqm = 1e-008 m
    wth0 =      0 m
    rhalo = 1e+015 ohm/m
    ntox =      1 
    toxref = 2.5e-009 m
    ebg =    1.2 V
    vevb =  0.075 
    alphagb1 =   0.35 1/V
    betagb1 =   0.03 1/V^2
    vgb1 =    300 V
    vecb =  0.026 
    alphagb2 =   0.43 1/V
    betagb2 =   0.05 1/V^2
    vgb2 =     17 V
    voxh =      5 
    deltavox =  0.005 
    aigc = 0.0136 
    bigc = 0.00171 
    cigc =  0.075 
    aigsd =   0.31 
[...]
 Warning: Rsw at current temperature is negative; set to 0.
 Warning: Rdw at current temperature is negative; set to 0.
 Warning: Rdwmin at current temperature is negative; set to 0.
 Warning: Rsw at current temperature is negative; set to 0.
 Warning: Rdw at current temperature is negative; set to 0.
 Warning: Rdwmin at current temperature is negative; set to 0.
 Warning: Rsw at current temperature is negative; set to 0.
 Warning: Rdw at current temperature is negative; set to 0.
 Warning: Rdwmin at current temperature is negative; set to 0.
 Warning: Rsw at current temperature is negative; set to 0.
 Warning: Rdw at current temperature is negative; set to 0.
 Warning: Rdwmin at current temperature is negative; set to 0.
 Warning: Rsw at current temperature is negative; set to 0.
 Warning: Rdw at current temperature is negative; set to 0.
 Warning: Rdwmin at current temperature is negative; set to 0.
 Warning: Rsw at current temperature is negative; set to 0.
 Warning: Rdw at current temperature is negative; set to 0.
 Warning: Rdwmin at current temperature is negative; set to 0.
 Warning: Rsw at current temperature is negative; set to 0.
 Warning: Rdw at current temperature is negative; set to 0.
 Warning: Rdwmin at current temperature is negative; set to 0.
 Warning: Rsw at current temperature is negative; set to 0.

 ***warning** no connections on node        2:10               defined in subckt alu_control      ignored

 ***warning** no connections on node        3:10               defined in subckt alu_control      ignored

 ***warning** no connections on node        4:10               defined in subckt alu_control      ignored

 ***warning** no connections on node        5:10               defined in subckt alu_control      ignored

 ***warning** no connections on node        6:10               defined in subckt alu_control      ignored

 ***warning** no connections on node        7:10               defined in subckt alu_control      ignored

 ***warning** no connections on node        8:10               defined in subckt alu_control      ignored

 ***warning** no connections on node        9:10               defined in subckt alu_control      ignored

 ***warning** no connections on node       10:10               defined in subckt full_adder       ignored

 ***warning** no connections on node       11:10               defined in subckt and              ignored

 ***warning** no connections on node       12:10               defined in subckt full_adder       ignored

 ***warning** no connections on node       13:10               defined in subckt and              ignored

 ***warning** no connections on node       14:10               defined in subckt full_adder       ignored

 ***warning** no connections on node       15:10               defined in subckt and              ignored

 ***warning** no connections on node       16:10               defined in subckt full_adder       ignored

 ***warning** no connections on node       17:10               defined in subckt and              ignored

 ***warning** no connections on node       18:10               defined in subckt full_adder       ignored

 ***warning** no connections on node       19:10               defined in subckt and              ignored

 ***warning** no connections on node       20:10               defined in subckt full_adder       ignored

 ***warning** no connections on node       21:10               defined in subckt and              ignored

 ***warning** no connections on node       22:10               defined in subckt full_adder       ignored

 ***warning** no connections on node       23:10               defined in subckt and              ignored

 ***warning** no connections on node       24:10               defined in subckt full_adder       ignored

 ***warning** no connections on node       25:10               defined in subckt inv              ignored

 ***warning** no connections on node       26:10               defined in subckt inv              ignored

 ***warning** no connections on node       27:10               defined in subckt inv              ignored

 ***warning** no connections on node       28:10               defined in subckt inv              ignored

 ***warning** no connections on node       29:10               defined in subckt inv              ignored

 ***warning** no connections on node       58:10               defined in subckt inv              ignored

 ***warning** no connections on node       59:10               defined in subckt inv              ignored

 ***warning** no connections on node       60:10               defined in subckt inv              ignored

 ***warning** no connections on node       61:10               defined in subckt inv              ignored

 ***warning** no connections on node       62:10               defined in subckt inv              ignored

 ***warning** no connections on node       91:10               defined in subckt inv              ignored

 ***warning** no connections on node       92:10               defined in subckt inv              ignored

 ***warning** no connections on node       93:10               defined in subckt inv              ignored

 ***warning** no connections on node       94:10               defined in subckt inv              ignored

 ***warning** no connections on node       95:10               defined in subckt inv              ignored

 ***warning** no connections on node      124:10               defined in subckt inv              ignored

 ***warning** no connections on node      125:10               defined in subckt inv              ignored

 ***warning** no connections on node      126:10               defined in subckt inv              ignored

 ***warning** no connections on node      127:10               defined in subckt inv              ignored

 ***warning** no connections on node      128:10               defined in subckt inv              ignored

 ***warning** no connections on node      157:10               defined in subckt inv              ignored

 ***warning** no connections on node      158:10               defined in subckt inv              ignored

 ***warning** no connections on node      159:10               defined in subckt inv              ignored

 ***warning** no connections on node      160:10               defined in subckt inv              ignored

 ***warning** no connections on node      161:10               defined in subckt inv              ignored

 ***warning** no connections on node      190:10               defined in subckt inv              ignored

 ***warning** no connections on node      191:10               defined in subckt inv              ignored

 ***warning** no connections on node      192:10               defined in subckt inv              ignored

 ***warning** no connections on node      193:10               defined in subckt inv              ignored

 ***warning** no connections on node      194:10               defined in subckt inv              ignored

 ***warning** no connections on node      223:10               defined in subckt inv              ignored

 ***warning** no connections on node      224:10               defined in subckt inv              ignored

 ***warning** no connections on node      225:10               defined in subckt inv              ignored

 ***warning** no connections on node      226:10               defined in subckt inv              ignored

 ***warning** no connections on node      227:10               defined in subckt inv              ignored

 ***warning** no connections on node      256:10               defined in subckt inv              ignored

 ***warning** no connections on node      257:10               defined in subckt inv              ignored

 ***warning** no connections on node      258:10               defined in subckt inv              ignored

 ***warning** no connections on node      259:10               defined in subckt inv              ignored

 ***warning** no connections on node      260:10               defined in subckt inv              ignored

 ***warning** no connections on node      303:10               defined in subckt inv              ignored

 ***warning** no connections on node      318:10               defined in subckt inv              ignored

 ***warning** no connections on node      333:10               defined in subckt inv              ignored

 ***warning** no connections on node      348:10               defined in subckt inv              ignored

 ***warning** no connections on node      363:10               defined in subckt inv              ignored

 ***warning** no connections on node      378:10               defined in subckt inv              ignored

 ***warning** no connections on node      393:10               defined in subckt inv              ignored
  Opening plot unit= 79
 file=f:\major_project\codes\cmos\conventional\alu\alu (2).pa0                 


 **diagnostic** dc convergence failure, 
 resetting dcon option to 2 and retrying.

 no convergence with standard algorithm,  trying damped pseudo-transient

 **diagnostic** number of iteration exceeds min(7000, 20*itl1)=  4000 in pseudo
 tran process (converge=1 process). Usually this happens when the
 models are discontinous, or there are uninitialized bi-stable cells
 (flip-flop) in the circuit. By setting options dcon=-1 and converge=-1
 you can disable auto convergence process. Retry the run, non-convergence
 diagnostics will provide useful information about the nodes and devices
 which can be used to work around the non-convergence problems.

 no convergence in damped pseudo-transient,  trying gmath ramping method


 **diagnostic** rebuilding matrix without pivot option

 **warning** matrix cancellation on node   281:mn2:if           reset to spp, iterno=   94

 **diagnostic** no convergence in gmath method gmath=    0.00    
  *** gshunt ramping started *** 
  **diagnostic** gshunt ramping failed 



 **error** no convergence in operating point





 ***
 *** hspice diagnostic ***
     nonconvergent voltage failures=     9
     nonconvergent element current failures=     0
 ***
1 ****** HSPICE -Z-2007.03 32-BIT  (Feb 28 2007) 18:52:20 02/09/2016 pcnt       
 ******  
  alu                                                                          
  ******  operating point information      tnom=  25.000 temp=  25.000         
 ******  
 ***** operating point status is debug     simulation time is     0.     
      node    =voltage        node    =voltage        node    =voltage

 +  0:s2b     = 1.000e-00   0:va0     =   0.        0:va1     =   0.     
 +  0:va2     =   0.        0:va3     =   0.        0:va4     =   0.     
 +  0:va5     =   0.        0:va6     =   0.        0:va7     =   0.     
 +  0:vb0     = 1.000e+00   0:vb1     = 1.000e+00   0:vb2     = 1.000e+00
 +  0:vb3     = 1.000e+00   0:vb4     = 1.000e+00   0:vb5     = 1.000e+00
 +  0:vb6     = 1.000e+00   0:vb7     = 1.000e+00   0:vcin    =   0.     
 +  0:vdd     = 1.000e+00   0:vs0     = 1.000e+00   0:vs1     = 1.000e+00
 +  0:vs2     = 1.000e+00   0:y0      = 7.218e-18   0:y1      = 1.043e-02
 +  0:y2      = 1.043e-02   0:y3      = 1.043e-02   0:y4      = 1.043e-02
 +  0:y5      = 1.043e-02   0:y6      = 1.043e-02   0:ycout   = 1.043e-02
 +  1:c0      = 1.000e-00   1:c01     = 6.681e-18   1:c11     = 1.043e-02
 +  1:c4      = 1.000e-00   0:y7      = 1.043e-02   1:c1      = 1.000e-00
 +  1:c2      = 1.000e-00   1:c21     = 1.043e-02   1:c3      = 1.000e-00
 +  1:c31     = 1.043e-02   1:c41     = 1.043e-02   1:c5      = 1.000e-00
 +  1:c51     = 1.043e-02   1:c6      = 1.000e-00   1:c61     = 1.043e-02
 +  1:x0      = 1.040e-02   1:x1      = 1.040e-02   1:x2      = 1.040e-02
 +  1:x3      = 1.040e-02   1:x4      = 1.040e-02   1:x5      = 1.040e-02
 +  1:x6      = 1.040e-02   1:x7      = 1.040e-02   1:y0      = 1.000e-00
 +  1:y1      = 1.000e-00   1:y2      = 1.000e-00   1:y3      = 1.000e-00
 +  1:y4      = 1.000e-00   1:y5      = 1.000e-00   1:y6      = 1.000e-00
 +  1:y7      = 1.000e-00   2:10      =   0.        2:ab      = 1.043e-02
 +  2:bb      = 1.000e-00   2:s0b     = 1.000e-00   2:s1b     = 1.000e-00
 +  2:vdp1    = 1.000e-00   2:vdp11   = 1.000e-00   2:vdp12   = 1.043e-02
 +  2:vdp13   = 3.954e-16   2:vdp2    = 1.000e-00   2:vdp5    = 1.000e-00
 +  2:vdp7    = 1.041e-02   2:vdp9    = 1.041e-02   2:vsn1    = 2.962e-05
 +  2:vsn5    = 5.006e-06   2:vsn7    = 2.770e-09   2:vsn9    = 1.531e-12
 +  3:10      =   0.        3:ab      = 1.043e-02   3:bb      = 1.000e-00
 +  3:s0b     = 1.000e-00   3:s1b     = 1.000e-00   3:vdp1    = 1.000e-00
 +  3:vdp11   = 1.000e-00   3:vdp12   = 1.043e-02   3:vdp13   = 3.954e-16
 +  3:vdp2    = 1.000e-00   3:vdp5    = 1.000e-00   3:vdp7    = 1.041e-02
 +  3:vdp9    = 1.041e-02   3:vsn1    = 2.962e-05   3:vsn5    = 5.006e-06
 +  3:vsn7    = 2.770e-09   3:vsn9    = 1.531e-12   4:10      =   0.     
 +  4:ab      = 1.043e-02   4:bb      = 1.000e-00   4:s0b     = 1.000e-00
 +  4:s1b     = 1.000e-00   4:vdp1    = 1.000e-00   4:vdp11   = 1.000e-00
 +  4:vdp12   = 1.043e-02   4:vdp13   = 3.954e-16   4:vdp2    = 1.000e-00
 +  4:vdp5    = 1.000e-00   4:vdp7    = 1.041e-02   4:vdp9    = 1.041e-02
 +  4:vsn1    = 2.962e-05   4:vsn5    = 5.006e-06   4:vsn7    = 2.770e-09
 +  4:vsn9    = 1.531e-12   5:10      =   0.        5:ab      = 1.043e-02
 +  5:bb      = 1.000e-00   5:s0b     = 1.000e-00   5:s1b     = 1.000e-00
 +  5:vdp1    = 1.000e-00   5:vdp11   = 1.000e-00   5:vdp12   = 1.043e-02
 +  5:vdp13   = 3.954e-16   5:vdp2    = 1.000e-00   5:vdp5    = 1.000e-00
 +  5:vdp7    = 1.041e-02   5:vdp9    = 1.041e-02   5:vsn1    = 2.962e-05
 +  5:vsn5    = 5.006e-06   5:vsn7    = 2.770e-09   5:vsn9    = 1.531e-12
 +  6:10      =   0.        6:ab      = 1.043e-02   6:bb      = 1.000e-00
 +  6:s0b     = 1.000e-00   6:s1b     = 1.000e-00   6:vdp1    = 1.000e-00
 +  6:vdp11   = 1.000e-00   6:vdp12   = 1.043e-02   6:vdp13   = 3.954e-16
 +  6:vdp2    = 1.000e-00   6:vdp5    = 1.000e-00   6:vdp7    = 1.041e-02
 +  6:vdp9    = 1.041e-02   6:vsn1    = 2.962e-05   6:vsn5    = 5.006e-06
 +  6:vsn7    = 2.770e-09   6:vsn9    = 1.531e-12   7:10      =   0.     
 +  7:ab      = 1.043e-02   7:bb      = 1.000e-00   7:s0b     = 1.000e-00
 +  7:s1b     = 1.000e-00   7:vdp1    = 1.000e-00   7:vdp11   = 1.000e-00
 +  7:vdp12   = 1.043e-02   7:vdp13   = 3.954e-16   7:vdp2    = 1.000e-00
 +  7:vdp5    = 1.000e-00   7:vdp7    = 1.041e-02   7:vdp9    = 1.041e-02
 +  7:vsn1    = 2.962e-05   7:vsn5    = 5.006e-06   7:vsn7    = 2.770e-09
 +  7:vsn9    = 1.531e-12   8:10      =   0.        8:ab      = 1.043e-02
 +  8:bb      = 1.000e-00   8:s0b     = 1.000e-00   8:s1b     = 1.000e-00
 +  8:vdp1    = 1.000e-00   8:vdp11   = 1.000e-00   8:vdp12   = 1.043e-02
 +  8:vdp13   = 3.954e-16   8:vdp2    = 1.000e-00   8:vdp5    = 1.000e-00
 +  8:vdp7    = 1.041e-02   8:vdp9    = 1.041e-02   8:vsn1    = 2.962e-05
 +  8:vsn5    = 5.006e-06   8:vsn7    = 2.770e-09   8:vsn9    = 1.531e-12
 +  9:10      =   0.        9:ab      = 1.043e-02   9:bb      = 1.000e-00
 +  9:s0b     = 1.000e-00   9:s1b     = 1.000e-00   9:vdp1    = 1.000e-00
 +  9:vdp11   = 1.000e-00   9:vdp12   = 1.043e-02   9:vdp13   = 3.954e-16
 +  9:vdp2    = 1.000e-00   9:vdp5    = 1.000e-00   9:vdp7    = 1.041e-02
 +  9:vdp9    = 1.041e-02   9:vsn1    = 2.962e-05   9:vsn5    = 5.006e-06
 +  9:vsn7    = 2.770e-09   9:vsn9    = 1.531e-12  10:10      =   0.     
 + 10:x1      = 1.041e-02  10:x2      = 5.009e-06  10:x3      = 1.043e-02
 + 11:10      =   0.       11:vn1     = 1.483e-05  11:vout1   = 1.000e-00
 + 12:10      =   0.       12:x1      = 1.041e-02  12:x2      = 1.002e-05
 + 12:x3      = 1.000e-00  13:10      =   0.       13:vn1     = 1.483e-05
 + 13:vout1   = 1.000e-00  14:10      =   0.       14:x1      = 1.041e-02
 + 14:x2      = 1.002e-05  14:x3      = 1.000e-00  15:10      =   0.     
 + 15:vn1     = 1.483e-05  15:vout1   = 1.000e-00  16:10      =   0.     
 + 16:x1      = 1.041e-02  16:x2      = 1.002e-05  16:x3      = 1.000e-00
 + 17:10      =   0.       17:vn1     = 1.483e-05  17:vout1   = 1.000e-00
 + 18:10      =   0.       18:x1      = 1.041e-02  18:x2      = 1.002e-05
 + 18:x3      = 1.000e-00  19:10      =   0.       19:vn1     = 1.483e-05
 + 19:vout1   = 1.000e-00  20:10      =   0.       20:x1      = 1.041e-02
 + 20:x2      = 1.002e-05  20:x3      = 1.000e-00  21:10      =   0.     
 + 21:vn1     = 1.483e-05  21:vout1   = 1.000e-00  22:10      =   0.     
 + 22:x1      = 1.041e-02  22:x2      = 1.002e-05  22:x3      = 1.000e-00
 + 23:10      =   0.       23:vn1     = 1.483e-05  23:vout1   = 1.000e-00
 + 24:10      =   0.       24:x1      = 1.041e-02  24:x2      = 1.002e-05
 + 24:x3      = 1.000e-00  25:10      =   0.       26:10      =   0.     
 + 27:10      =   0.       28:10      =   0.       29:10      =   0.     
 + 58:10      =   0.       59:10      =   0.       60:10      =   0.     
 + 61:10      =   0.       62:10      =   0.       91:10      =   0.     
 + 92:10      =   0.       93:10      =   0.       94:10      =   0.     
 + 95:10      =   0.      124:10      =   0.      125:10      =   0.     
 +126:10      =   0.      127:10      =   0.      128:10      =   0.     
 +157:10      =   0.      158:10      =   0.      159:10      =   0.     
 +160:10      =   0.      161:10      =   0.      190:10      =   0.     
 +191:10      =   0.      192:10      =   0.      193:10      =   0.     
 +194:10      =   0.      223:10      =   0.      224:10      =   0.     
 +225:10      =   0.      226:10      =   0.      227:10      =   0.     
 +256:10      =   0.      257:10      =   0.      258:10      =   0.     
 +259:10      =   0.      260:10      =   0.      303:10      =   0.     
 +318:10      =   0.      333:10      =   0.      348:10      =   0.     
 +363:10      =   0.      378:10      =   0.      393:10      =   0.     




     hspice diagnostic for nonconvergent nodes and elements


                        node    subcircuit       old       new      error 
                        name    definition    voltage   voltage   tolerance
                    (46:mp2:if) p10hpfet    -2.83e-04   5.50e-05  3.28e+00
                    (79:mp2:if) p10hpfet    -2.83e-04   5.50e-05  3.28e+00
                   (112:mp2:if) p10hpfet    -2.83e-04   5.50e-05  3.28e+00
                   (145:mp2:if) p10hpfet    -2.83e-04   5.50e-05  3.28e+00
                   (178:mp2:if) p10hpfet    -2.83e-04   5.50e-05  3.28e+00
                   (211:mp2:if) p10hpfet    -2.83e-04   5.50e-05  3.28e+00
                   (244:mp2:if) p10hpfet    -2.83e-04   5.50e-05  3.28e+00
                   (277:mp2:if) p10hpfet    -2.83e-04   5.50e-05  3.28e+00
       (xalu1.xfa1.xm2p.mp2:if) p10hpfet    -2.83e-04   5.48e-05  3.28e+00
     total voltage source power dissipation=  9.524e-09       watts




 **** mosfets



          ***** job aborted
1 ****** HSPICE -Z-2007.03 32-BIT  (Feb 28 2007) 18:52:20 02/09/2016 pcnt       
 ******  
  alu                                                                          
  ******  job statistics summary           tnom=  25.000 temp=  25.000         
 ******  

           total memory used       2539 kbytes

  # nodes =     724 # elements=     517
  # diodes=       0 # bjts    =       0 # jfets   =       0 # mosfets =     426
  # va device =       0

    analysis           time    # points   tot. iter  conv.iter

    op point         169.65           1       16249
    transient          0.00          23           0           0 rev=         0
    readin             0.10
    errchk             4.06
    setup              0.05
    output             0.00
           total cpu time        173.88 seconds
               job started at  18:52:20 02/09/2016
               job ended   at  18:55:14 02/09/2016


  Init: hspice initialization file: C:\synopsys\Hspice_Z-2007.03\hspice.ini     
                                                  
  lic: Release hspice token(s) 
