 ****** HSPICE -- F-2011.09 32-BIT (Sep  5 2011) winnt ******                   
  Copyright (C) 2011 Synopsys, Inc. All Rights Reserved.                        
  Unpublished-rights reserved under US copyright laws.
  This program is protected by law and is subject to the
  terms and conditions of the license agreement from Synopsys.
  Use of this program is your acceptance to be bound by the
  license agreement. HSPICE is the trademark of Synopsys, Inc.
  Input File: f:\major_project\codes\cmos\adiabatic\pfal\alu\alu_rca_con\init.sp
  Command line options: -i f:\major_project\codes\cmos\adiabatic\pfal\alu\alu_rca_con\init.sp -o f:\major_project\codes\cmos\adiabatic\pfal\alu\alu_rca_con\init.lis
  lic:  
  lic: FLEXlm: v10.8 
  lic: USER:   Inspiron             HOSTNAME: Muniraj 
  lic: HOSTID: "5e855678b24d 1e855678b24d bc855678b24d 74867a25f6d4 005056c00001
  
  lic: Using FLEXlm license file: 
  lic: 27000@Muniraj 
  lic: Checkout 1 hspice 
  lic: License/Maintenance for hspice will expire on 31-dec-2019/2019.12 
  lic: NODE LOCKED license on hostid "5e855678b24d 1e855678b24d bc855678b24d 748
 6
  lic:   
 Init: read install configuration file: F:\synopsys\Hspice_F-2011.09\meta.cfg
  **warning** (C:\synopsys\hl\hp\10nm\10nfet.pm:4) Model nfet device geometries will not be checked against the limits set by lmin, lmax, nfinmin and nfinmax. To enable this check, add a period(.) to the model name(i.e. enable model selector).
  **warning** (C:\synopsys\hl\hp\ptm10hp.sp:14) Parameter  lg       is ignored
  **warning** (C:\synopsys\hl\hp\ptm10hp.sp:23) Parameter  lg       is ignored
1****** HSPICE -- F-2011.09 32-BIT (Sep  5 2011) winnt ******                   
 ******  
 init

  ******  circuit name directory
 circuit number to circuit name directory
   number circuitname                     definition         multiplier
        0 main circuit
        1 xmosfet21.                      p10hpfet           1.00 
        2 xmosfet22.                      n10hpfet           1.00 
        3 xalu1.                          pfal_alu_rca_con   1.00 
        4 xalu1.xmux1.                    pfal_mux4_1        1.00 
        5 xalu1.xmux2.                    pfal_mux4_1        1.00 
        6 xalu1.xmux3.                    pfal_mux4_1        1.00 
        7 xalu1.xmux4.                    pfal_mux4_1        1.00 
        8 xalu1.xmux5.                    pfal_mux4_1        1.00 
        9 xalu1.xmux6.                    pfal_mux4_1        1.00 
       10 xalu1.xmux7.                    pfal_mux4_1        1.00 
       11 xalu1.xmux8.                    pfal_mux4_1        1.00 
       12 xalu1.xinv1.                    pfal_not_buff      1.00 
       13 xalu1.xinv2.                    pfal_not_buff      1.00 
       14 xalu1.xinv3.                    pfal_not_buff      1.00 
       15 xalu1.xinv4.                    pfal_not_buff      1.00 
       16 xalu1.xinv5.                    pfal_not_buff      1.00 
       17 xalu1.xinv6.                    pfal_not_buff      1.00 
       18 xalu1.xinv7.                    pfal_not_buff      1.00 
       19 xalu1.xinv8.                    pfal_not_buff      1.00 
       20 xalu1.xinv9.                    pfal_not_buff      1.00 
       21 xalu1.xinv10.                   pfal_not_buff      1.00 
       22 xalu1.xpa1.                     ripple_carry_adder
                                                                 1.00 
       23 xalu1.xnand1.                   pfal_nand_and      1.00 
       24 xalu1.xnand2.                   pfal_nand_and      1.00 
       25 xalu1.xnand3.                   pfal_nand_and      1.00 
       26 xalu1.xnand4.                   pfal_nand_and      1.00 
       27 xalu1.xnand5.                   pfal_nand_and      1.00 
       28 xalu1.xnand6.                   pfal_nand_and      1.00 
       29 xalu1.xnand7.                   pfal_nand_and      1.00 
       30 xalu1.xnand8.                   pfal_nand_and      1.00 
       31 xalu1.xnor1.                    pfal_nor_or        1.00 
       32 xalu1.xnor2.                    pfal_nor_or        1.00 
       33 xalu1.xnor3.                    pfal_nor_or        1.00 
       34 xalu1.xnor4.                    pfal_nor_or        1.00 
       35 xalu1.xnor5.                    pfal_nor_or        1.00 
       36 xalu1.xnor6.                    pfal_nor_or        1.00 
       37 xalu1.xnor7.                    pfal_nor_or        1.00 
       38 xalu1.xnor8.                    pfal_nor_or        1.00 
       39 xalu1.xxor1.                    pfal_xor_xnor      1.00 
       40 xalu1.xxor2.                    pfal_xor_xnor      1.00 
       41 xalu1.xxor3.                    pfal_xor_xnor      1.00 
       42 xalu1.xxor4.                    pfal_xor_xnor      1.00 
       43 xalu1.xxor5.                    pfal_xor_xnor      1.00 
       44 xalu1.xxor6.                    pfal_xor_xnor      1.00 
       45 xalu1.xxor7.                    pfal_xor_xnor      1.00 
       46 xalu1.xxor8.                    pfal_xor_xnor      1.00 
       47 xalu1.xinv19.                   pfal_not_buff      1.00 
       48 xalu1.xinv20.                   pfal_not_buff      1.00 
       49 xalu1.xmux9.                    pfal_mux4_1        1.00 
       50 xalu1.xmux10.                   pfal_mux4_1        1.00 
       51 xalu1.xmux11.                   pfal_mux4_1        1.00 
       52 xalu1.xmux12.                   pfal_mux4_1        1.00 
       53 xalu1.xmux13.                   pfal_mux4_1        1.00 
       54 xalu1.xmux14.                   pfal_mux4_1        1.00 
       55 xalu1.xmux15.                   pfal_mux4_1        1.00 
       56 xalu1.xmux16.                   pfal_mux4_1        1.00 
       57 xalu1.xinv11.                   pfal_not_buff      1.00 
       58 xalu1.xinv_buf1.                pfal_not_buff      1.00 
       59 xalu1.xinv_buf2.                pfal_not_buff      1.00 
       60 xalu1.xinv_buf3.                pfal_not_buff      1.00 
       61 xalu1.xinv_buf4.                pfal_not_buff      1.00 
       62 xalu1.xinv_buf5.                pfal_not_buff      1.00 
       63 xalu1.xinv_buf6.                pfal_not_buff      1.00 
       64 xalu1.xinv_buf7.                pfal_not_buff      1.00 
       65 xalu1.xinv_buf8.                pfal_not_buff      1.00 
       66 xalu1.xinv12.                   pfal_not_buff      1.00 
       67 xalu1.xinv_buf9.                pfal_not_buff      1.00 
       68 xalu1.xinv_buf10.               pfal_not_buff      1.00 
       69 xalu1.xinv_buf11.               pfal_not_buff      1.00 
       70 xalu1.xinv_buf12.               pfal_not_buff      1.00 
       71 xalu1.xinv_buf13.               pfal_not_buff      1.00 
       72 xalu1.xinv_buf14.               pfal_not_buff      1.00 
       73 xalu1.xinv_buf15.               pfal_not_buff      1.00 
       74 xalu1.xinv_buf16.               pfal_not_buff      1.00 
       75 xalu1.xinv13.                   pfal_not_buff      1.00 
       76 xalu1.xinv_buf17.               pfal_not_buff      1.00 
       77 xalu1.xinv_buf18.               pfal_not_buff      1.00 
       78 xalu1.xinv_buf19.               pfal_not_buff      1.00 
       79 xalu1.xinv_buf20.               pfal_not_buff      1.00 
       80 xalu1.xinv_buf21.               pfal_not_buff      1.00 
       81 xalu1.xinv_buf22.               pfal_not_buff      1.00 
       82 xalu1.xinv_buf23.               pfal_not_buff      1.00 
       83 xalu1.xinv_buf24.               pfal_not_buff      1.00 
       84 xalu1.xinv14.                   pfal_not_buff      1.00 
       85 xalu1.xinv_buf25.               pfal_not_buff      1.00 
       86 xalu1.xinv_buf26.               pfal_not_buff      1.00 
       87 xalu1.xinv_buf27.               pfal_not_buff      1.00 
       88 xalu1.xinv_buf28.               pfal_not_buff      1.00 
       89 xalu1.xinv_buf29.               pfal_not_buff      1.00 
       90 xalu1.xinv_buf30.               pfal_not_buff      1.00 
       91 xalu1.xinv_buf31.               pfal_not_buff      1.00 
       92 xalu1.xinv_buf32.               pfal_not_buff      1.00 
       93 xalu1.xinv15.                   pfal_not_buff      1.00 
       94 xalu1.xinv_buf33.               pfal_not_buff      1.00 
       95 xalu1.xinv_buf34.               pfal_not_buff      1.00 
       96 xalu1.xinv_buf35.               pfal_not_buff      1.00 
       97 xalu1.xinv_buf36.               pfal_not_buff      1.00 
       98 xalu1.xinv_buf37.               pfal_not_buff      1.00 
       99 xalu1.xinv_buf38.               pfal_not_buff      1.00 
      100 xalu1.xinv_buf39.               pfal_not_buff      1.00 
      101 xalu1.xinv_buf40.               pfal_not_buff      1.00 
      102 xalu1.xinv16.                   pfal_not_buff      1.00 
      103 xalu1.xinv_buf41.               pfal_not_buff      1.00 
      104 xalu1.xinv_buf42.               pfal_not_buff      1.00 
      105 xalu1.xinv_buf43.               pfal_not_buff      1.00 
      106 xalu1.xinv_buf44.               pfal_not_buff      1.00 
      107 xalu1.xinv_buf45.               pfal_not_buff      1.00 
      108 xalu1.xinv_buf46.               pfal_not_buff      1.00 
      109 xalu1.xinv_buf47.               pfal_not_buff      1.00 
      110 xalu1.xinv_buf48.               pfal_not_buff      1.00 
      111 xalu1.xinv17.                   pfal_not_buff      1.00 
      112 xalu1.xinv_buf49.               pfal_not_buff      1.00 
      113 xalu1.xinv_buf50.               pfal_not_buff      1.00 
      114 xalu1.xinv_buf51.               pfal_not_buff      1.00 
      115 xalu1.xinv_buf52.               pfal_not_buff      1.00 
      116 xalu1.xinv_buf53.               pfal_not_buff      1.00 
      117 xalu1.xinv_buf54.               pfal_not_buff      1.00 
      118 xalu1.xinv_buf55.               pfal_not_buff      1.00 
      119 xalu1.xinv_buf56.               pfal_not_buff      1.00 
      120 xalu1.xinv18.                   pfal_not_buff      1.00 
      121 xalu1.xmux17.                   pfal_mux2_1        1.00 
      122 xalu1.xmux18.                   pfal_mux2_1        1.00 
      123 xalu1.xmux19.                   pfal_mux2_1        1.00 
      124 xalu1.xmux20.                   pfal_mux2_1        1.00 
      125 xalu1.xmux21.                   pfal_mux2_1        1.00 
      126 xalu1.xmux22.                   pfal_mux2_1        1.00 
      127 xalu1.xmux23.                   pfal_mux2_1        1.00 
      128 xalu1.xmux24.                   pfal_mux2_1        1.00 
      129 xalu1.xinv_buf57.               pfal_not_buff      1.00 
      130 xalu1.xmux1.xm1p.               p10hpfet           1.00 
      131 xalu1.xmux1.xm2p.               p10hpfet           1.00 
      132 xalu1.xmux1.xm1n.               n10hpfet           1.00 
      133 xalu1.xmux1.xm2n.               n10hpfet           1.00 
      134 xalu1.xmux1.xm3n.               n10hpfet           1.00 
      135 xalu1.xmux1.xm4n.               n10hpfet           1.00 
      136 xalu1.xmux1.xm5n.               n10hpfet           1.00 
      137 xalu1.xmux1.xm6n.               n10hpfet           1.00 
      138 xalu1.xmux1.xm7n.               n10hpfet           1.00 
      139 xalu1.xmux1.xm8n.               n10hpfet           1.00 
      140 xalu1.xmux1.xm9n.               n10hpfet           1.00 
      141 xalu1.xmux1.xm10n.              n10hpfet           1.00 
      142 xalu1.xmux1.xm11n.              n10hpfet           1.00 
      143 xalu1.xmux1.xm12n.              n10hpfet           1.00 
      144 xalu1.xmux1.xm13n.              n10hpfet           1.00 
      145 xalu1.xmux1.xm14n.              n10hpfet           1.00 
      146 xalu1.xmux1.xm15n.              n10hpfet           1.00 
      147 xalu1.xmux1.xm16n.              n10hpfet           1.00 
      148 xalu1.xmux1.xm17n.              n10hpfet           1.00 
      149 xalu1.xmux1.xm18n.              n10hpfet           1.00 
      150 xalu1.xmux1.xm19n.              n10hpfet           1.00 
      151 xalu1.xmux1.xm20n.              n10hpfet           1.00 
      152 xalu1.xmux1.xm21n.              n10hpfet           1.00 
      153 xalu1.xmux1.xm22n.              n10hpfet           1.00 
      154 xalu1.xmux1.xm23n.              n10hpfet           1.00 
      155 xalu1.xmux1.xm24n.              n10hpfet           1.00 
      156 xalu1.xmux1.xm25n.              n10hpfet           1.00 
      157 xalu1.xmux1.xm26n.              n10hpfet           1.00 
      158 xalu1.xmux2.xm1p.               p10hpfet           1.00 
      159 xalu1.xmux2.xm2p.               p10hpfet           1.00 
      160 xalu1.xmux2.xm1n.               n10hpfet           1.00 
      161 xalu1.xmux2.xm2n.               n10hpfet           1.00 
      162 xalu1.xmux2.xm3n.               n10hpfet           1.00 
      163 xalu1.xmux2.xm4n.               n10hpfet           1.00 
      164 xalu1.xmux2.xm5n.               n10hpfet           1.00 
      165 xalu1.xmux2.xm6n.               n10hpfet           1.00 
      166 xalu1.xmux2.xm7n.               n10hpfet           1.00 
      167 xalu1.xmux2.xm8n.               n10hpfet           1.00 
      168 xalu1.xmux2.xm9n.               n10hpfet           1.00 
      169 xalu1.xmux2.xm10n.              n10hpfet           1.00 
      170 xalu1.xmux2.xm11n.              n10hpfet           1.00 
      171 xalu1.xmux2.xm12n.              n10hpfet           1.00 
      172 xalu1.xmux2.xm13n.              n10hpfet           1.00 
      173 xalu1.xmux2.xm14n.              n10hpfet           1.00 
      174 xalu1.xmux2.xm15n.              n10hpfet           1.00 
      175 xalu1.xmux2.xm16n.              n10hpfet           1.00 
      176 xalu1.xmux2.xm17n.              n10hpfet           1.00 
      177 xalu1.xmux2.xm18n.              n10hpfet           1.00 
      178 xalu1.xmux2.xm19n.              n10hpfet           1.00 
      179 xalu1.xmux2.xm20n.              n10hpfet           1.00 
      180 xalu1.xmux2.xm21n.              n10hpfet           1.00 
      181 xalu1.xmux2.xm22n.              n10hpfet           1.00 
      182 xalu1.xmux2.xm23n.              n10hpfet           1.00 
      183 xalu1.xmux2.xm24n.              n10hpfet           1.00 
      184 xalu1.xmux2.xm25n.              n10hpfet           1.00 
      185 xalu1.xmux2.xm26n.              n10hpfet           1.00 
      186 xalu1.xmux3.xm1p.               p10hpfet           1.00 
      187 xalu1.xmux3.xm2p.               p10hpfet           1.00 
      188 xalu1.xmux3.xm1n.               n10hpfet           1.00 
      189 xalu1.xmux3.xm2n.               n10hpfet           1.00 
      190 xalu1.xmux3.xm3n.               n10hpfet           1.00 
      191 xalu1.xmux3.xm4n.               n10hpfet           1.00 
      192 xalu1.xmux3.xm5n.               n10hpfet           1.00 
      193 xalu1.xmux3.xm6n.               n10hpfet           1.00 
      194 xalu1.xmux3.xm7n.               n10hpfet           1.00 
      195 xalu1.xmux3.xm8n.               n10hpfet           1.00 
      196 xalu1.xmux3.xm9n.               n10hpfet           1.00 
      197 xalu1.xmux3.xm10n.              n10hpfet           1.00 
      198 xalu1.xmux3.xm11n.              n10hpfet           1.00 
      199 xalu1.xmux3.xm12n.              n10hpfet           1.00 
      200 xalu1.xmux3.xm13n.              n10hpfet           1.00 
      201 xalu1.xmux3.xm14n.              n10hpfet           1.00 
      202 xalu1.xmux3.xm15n.              n10hpfet           1.00 
      203 xalu1.xmux3.xm16n.              n10hpfet           1.00 
      204 xalu1.xmux3.xm17n.              n10hpfet           1.00 
      205 xalu1.xmux3.xm18n.              n10hpfet           1.00 
      206 xalu1.xmux3.xm19n.              n10hpfet           1.00 
      207 xalu1.xmux3.xm20n.              n10hpfet           1.00 
      208 xalu1.xmux3.xm21n.              n10hpfet           1.00 
      209 xalu1.xmux3.xm22n.              n10hpfet           1.00 
      210 xalu1.xmux3.xm23n.              n10hpfet           1.00 
      211 xalu1.xmux3.xm24n.              n10hpfet           1.00 
      212 xalu1.xmux3.xm25n.              n10hpfet           1.00 
      213 xalu1.xmux3.xm26n.              n10hpfet           1.00 
      214 xalu1.xmux4.xm1p.               p10hpfet           1.00 
      215 xalu1.xmux4.xm2p.               p10hpfet           1.00 
      216 xalu1.xmux4.xm1n.               n10hpfet           1.00 
      217 xalu1.xmux4.xm2n.               n10hpfet           1.00 
      218 xalu1.xmux4.xm3n.               n10hpfet           1.00 
      219 xalu1.xmux4.xm4n.               n10hpfet           1.00 
      220 xalu1.xmux4.xm5n.               n10hpfet           1.00 
      221 xalu1.xmux4.xm6n.               n10hpfet           1.00 
      222 xalu1.xmux4.xm7n.               n10hpfet           1.00 
      223 xalu1.xmux4.xm8n.               n10hpfet           1.00 
      224 xalu1.xmux4.xm9n.               n10hpfet           1.00 
      225 xalu1.xmux4.xm10n.              n10hpfet           1.00 
      226 xalu1.xmux4.xm11n.              n10hpfet           1.00 
      227 xalu1.xmux4.xm12n.              n10hpfet           1.00 
      228 xalu1.xmux4.xm13n.              n10hpfet           1.00 
      229 xalu1.xmux4.xm14n.              n10hpfet           1.00 
      230 xalu1.xmux4.xm15n.              n10hpfet           1.00 
      231 xalu1.xmux4.xm16n.              n10hpfet           1.00 
      232 xalu1.xmux4.xm17n.              n10hpfet           1.00 
      233 xalu1.xmux4.xm18n.              n10hpfet           1.00 
      234 xalu1.xmux4.xm19n.              n10hpfet           1.00 
      235 xalu1.xmux4.xm20n.              n10hpfet           1.00 
      236 xalu1.xmux4.xm21n.              n10hpfet           1.00 
      237 xalu1.xmux4.xm22n.              n10hpfet           1.00 
      238 xalu1.xmux4.xm23n.              n10hpfet           1.00 
      239 xalu1.xmux4.xm24n.              n10hpfet           1.00 
      240 xalu1.xmux4.xm25n.              n10hpfet           1.00 
      241 xalu1.xmux4.xm26n.              n10hpfet           1.00 
      242 xalu1.xmux5.xm1p.               p10hpfet           1.00 
      243 xalu1.xmux5.xm2p.               p10hpfet           1.00 
      244 xalu1.xmux5.xm1n.               n10hpfet           1.00 
      245 xalu1.xmux5.xm2n.               n10hpfet           1.00 
      246 xalu1.xmux5.xm3n.               n10hpfet           1.00 
      247 xalu1.xmux5.xm4n.               n10hpfet           1.00 
      248 xalu1.xmux5.xm5n.               n10hpfet           1.00 
      249 xalu1.xmux5.xm6n.               n10hpfet           1.00 
      250 xalu1.xmux5.xm7n.               n10hpfet           1.00 
      251 xalu1.xmux5.xm8n.               n10hpfet           1.00 
      252 xalu1.xmux5.xm9n.               n10hpfet           1.00 
      253 xalu1.xmux5.xm10n.              n10hpfet           1.00 
      254 xalu1.xmux5.xm11n.              n10hpfet           1.00 
      255 xalu1.xmux5.xm12n.              n10hpfet           1.00 
      256 xalu1.xmux5.xm13n.              n10hpfet           1.00 
      257 xalu1.xmux5.xm14n.              n10hpfet           1.00 
      258 xalu1.xmux5.xm15n.              n10hpfet           1.00 
      259 xalu1.xmux5.xm16n.              n10hpfet           1.00 
      260 xalu1.xmux5.xm17n.              n10hpfet           1.00 
      261 xalu1.xmux5.xm18n.              n10hpfet           1.00 
      262 xalu1.xmux5.xm19n.              n10hpfet           1.00 
      263 xalu1.xmux5.xm20n.              n10hpfet           1.00 
      264 xalu1.xmux5.xm21n.              n10hpfet           1.00 
      265 xalu1.xmux5.xm22n.              n10hpfet           1.00 
      266 xalu1.xmux5.xm23n.              n10hpfet           1.00 
      267 xalu1.xmux5.xm24n.              n10hpfet           1.00 
      268 xalu1.xmux5.xm25n.              n10hpfet           1.00 
      269 xalu1.xmux5.xm26n.              n10hpfet           1.00 
      270 xalu1.xmux6.xm1p.               p10hpfet           1.00 
      271 xalu1.xmux6.xm2p.               p10hpfet           1.00 
      272 xalu1.xmux6.xm1n.               n10hpfet           1.00 
      273 xalu1.xmux6.xm2n.               n10hpfet           1.00 
      274 xalu1.xmux6.xm3n.               n10hpfet           1.00 
      275 xalu1.xmux6.xm4n.               n10hpfet           1.00 
      276 xalu1.xmux6.xm5n.               n10hpfet           1.00 
      277 xalu1.xmux6.xm6n.               n10hpfet           1.00 
      278 xalu1.xmux6.xm7n.               n10hpfet           1.00 
      279 xalu1.xmux6.xm8n.               n10hpfet           1.00 
      280 xalu1.xmux6.xm9n.               n10hpfet           1.00 
      281 xalu1.xmux6.xm10n.              n10hpfet           1.00 
      282 xalu1.xmux6.xm11n.              n10hpfet           1.00 
      283 xalu1.xmux6.xm12n.              n10hpfet           1.00 
      284 xalu1.xmux6.xm13n.              n10hpfet           1.00 
      285 xalu1.xmux6.xm14n.              n10hpfet           1.00 
      286 xalu1.xmux6.xm15n.              n10hpfet           1.00 
      287 xalu1.xmux6.xm16n.              n10hpfet           1.00 
      288 xalu1.xmux6.xm17n.              n10hpfet           1.00 
      289 xalu1.xmux6.xm18n.              n10hpfet           1.00 
      290 xalu1.xmux6.xm19n.              n10hpfet           1.00 
      291 xalu1.xmux6.xm20n.              n10hpfet           1.00 
      292 xalu1.xmux6.xm21n.              n10hpfet           1.00 
      293 xalu1.xmux6.xm22n.              n10hpfet           1.00 
      294 xalu1.xmux6.xm23n.              n10hpfet           1.00 
      295 xalu1.xmux6.xm24n.              n10hpfet           1.00 
      296 xalu1.xmux6.xm25n.              n10hpfet           1.00 
      297 xalu1.xmux6.xm26n.              n10hpfet           1.00 
      298 xalu1.xmux7.xm1p.               p10hpfet           1.00 
      299 xalu1.xmux7.xm2p.               p10hpfet           1.00 
      300 xalu1.xmux7.xm1n.               n10hpfet           1.00 
      301 xalu1.xmux7.xm2n.               n10hpfet           1.00 
      302 xalu1.xmux7.xm3n.               n10hpfet           1.00 
      303 xalu1.xmux7.xm4n.               n10hpfet           1.00 
      304 xalu1.xmux7.xm5n.               n10hpfet           1.00 
      305 xalu1.xmux7.xm6n.               n10hpfet           1.00 
      306 xalu1.xmux7.xm7n.               n10hpfet           1.00 
      307 xalu1.xmux7.xm8n.               n10hpfet           1.00 
      308 xalu1.xmux7.xm9n.               n10hpfet           1.00 
      309 xalu1.xmux7.xm10n.              n10hpfet           1.00 
      310 xalu1.xmux7.xm11n.              n10hpfet           1.00 
      311 xalu1.xmux7.xm12n.              n10hpfet           1.00 
      312 xalu1.xmux7.xm13n.              n10hpfet           1.00 
      313 xalu1.xmux7.xm14n.              n10hpfet           1.00 
      314 xalu1.xmux7.xm15n.              n10hpfet           1.00 
      315 xalu1.xmux7.xm16n.              n10hpfet           1.00 
      316 xalu1.xmux7.xm17n.              n10hpfet           1.00 
      317 xalu1.xmux7.xm18n.              n10hpfet           1.00 
      318 xalu1.xmux7.xm19n.              n10hpfet           1.00 
      319 xalu1.xmux7.xm20n.              n10hpfet           1.00 
      320 xalu1.xmux7.xm21n.              n10hpfet           1.00 
      321 xalu1.xmux7.xm22n.              n10hpfet           1.00 
      322 xalu1.xmux7.xm23n.              n10hpfet           1.00 
      323 xalu1.xmux7.xm24n.              n10hpfet           1.00 
      324 xalu1.xmux7.xm25n.              n10hpfet           1.00 
      325 xalu1.xmux7.xm26n.              n10hpfet           1.00 
      326 xalu1.xmux8.xm1p.               p10hpfet           1.00 
      327 xalu1.xmux8.xm2p.               p10hpfet           1.00 
      328 xalu1.xmux8.xm1n.               n10hpfet           1.00 
      329 xalu1.xmux8.xm2n.               n10hpfet           1.00 
      330 xalu1.xmux8.xm3n.               n10hpfet           1.00 
      331 xalu1.xmux8.xm4n.               n10hpfet           1.00 
      332 xalu1.xmux8.xm5n.               n10hpfet           1.00 
      333 xalu1.xmux8.xm6n.               n10hpfet           1.00 
      334 xalu1.xmux8.xm7n.               n10hpfet           1.00 
      335 xalu1.xmux8.xm8n.               n10hpfet           1.00 
      336 xalu1.xmux8.xm9n.               n10hpfet           1.00 
      337 xalu1.xmux8.xm10n.              n10hpfet           1.00 
      338 xalu1.xmux8.xm11n.              n10hpfet           1.00 
      339 xalu1.xmux8.xm12n.              n10hpfet           1.00 
      340 xalu1.xmux8.xm13n.              n10hpfet           1.00 
      341 xalu1.xmux8.xm14n.              n10hpfet           1.00 
      342 xalu1.xmux8.xm15n.              n10hpfet           1.00 
      343 xalu1.xmux8.xm16n.              n10hpfet           1.00 
      344 xalu1.xmux8.xm17n.              n10hpfet           1.00 
      345 xalu1.xmux8.xm18n.              n10hpfet           1.00 
      346 xalu1.xmux8.xm19n.              n10hpfet           1.00 
      347 xalu1.xmux8.xm20n.              n10hpfet           1.00 
      348 xalu1.xmux8.xm21n.              n10hpfet           1.00 
      349 xalu1.xmux8.xm22n.              n10hpfet           1.00 
      350 xalu1.xmux8.xm23n.              n10hpfet           1.00 
      351 xalu1.xmux8.xm24n.              n10hpfet           1.00 
      352 xalu1.xmux8.xm25n.              n10hpfet           1.00 
      353 xalu1.xmux8.xm26n.              n10hpfet           1.00 
      354 xalu1.xinv1.xm1p.               p10hpfet           1.00 
      355 xalu1.xinv1.xm2p.               p10hpfet           1.00 
      356 xalu1.xinv1.xm1n.               n10hpfet           1.00 
      357 xalu1.xinv1.xm2n.               n10hpfet           1.00 
      358 xalu1.xinv1.xm3n.               n10hpfet           1.00 
      359 xalu1.xinv1.xm4n.               n10hpfet           1.00 
      360 xalu1.xinv2.xm1p.               p10hpfet           1.00 
      361 xalu1.xinv2.xm2p.               p10hpfet           1.00 
      362 xalu1.xinv2.xm1n.               n10hpfet           1.00 
      363 xalu1.xinv2.xm2n.               n10hpfet           1.00 
      364 xalu1.xinv2.xm3n.               n10hpfet           1.00 
      365 xalu1.xinv2.xm4n.               n10hpfet           1.00 
      366 xalu1.xinv3.xm1p.               p10hpfet           1.00 
      367 xalu1.xinv3.xm2p.               p10hpfet           1.00 
      368 xalu1.xinv3.xm1n.               n10hpfet           1.00 
      369 xalu1.xinv3.xm2n.               n10hpfet           1.00 
      370 xalu1.xinv3.xm3n.               n10hpfet           1.00 
      371 xalu1.xinv3.xm4n.               n10hpfet           1.00 
      372 xalu1.xinv4.xm1p.               p10hpfet           1.00 
      373 xalu1.xinv4.xm2p.               p10hpfet           1.00 
      374 xalu1.xinv4.xm1n.               n10hpfet           1.00 
      375 xalu1.xinv4.xm2n.               n10hpfet           1.00 
      376 xalu1.xinv4.xm3n.               n10hpfet           1.00 
      377 xalu1.xinv4.xm4n.               n10hpfet           1.00 
      378 xalu1.xinv5.xm1p.               p10hpfet           1.00 
      379 xalu1.xinv5.xm2p.               p10hpfet           1.00 
      380 xalu1.xinv5.xm1n.               n10hpfet           1.00 
      381 xalu1.xinv5.xm2n.               n10hpfet           1.00 
      382 xalu1.xinv5.xm3n.               n10hpfet           1.00 
      383 xalu1.xinv5.xm4n.               n10hpfet           1.00 
      384 xalu1.xinv6.xm1p.               p10hpfet           1.00 
      385 xalu1.xinv6.xm2p.               p10hpfet           1.00 
      386 xalu1.xinv6.xm1n.               n10hpfet           1.00 
      387 xalu1.xinv6.xm2n.               n10hpfet           1.00 
      388 xalu1.xinv6.xm3n.               n10hpfet           1.00 
      389 xalu1.xinv6.xm4n.               n10hpfet           1.00 
      390 xalu1.xinv7.xm1p.               p10hpfet           1.00 
      391 xalu1.xinv7.xm2p.               p10hpfet           1.00 
      392 xalu1.xinv7.xm1n.               n10hpfet           1.00 
      393 xalu1.xinv7.xm2n.               n10hpfet           1.00 
      394 xalu1.xinv7.xm3n.               n10hpfet           1.00 
      395 xalu1.xinv7.xm4n.               n10hpfet           1.00 
      396 xalu1.xinv8.xm1p.               p10hpfet           1.00 
      397 xalu1.xinv8.xm2p.               p10hpfet           1.00 
      398 xalu1.xinv8.xm1n.               n10hpfet           1.00 
      399 xalu1.xinv8.xm2n.               n10hpfet           1.00 
      400 xalu1.xinv8.xm3n.               n10hpfet           1.00 
      401 xalu1.xinv8.xm4n.               n10hpfet           1.00 
      402 xalu1.xinv9.xm1p.               p10hpfet           1.00 
      403 xalu1.xinv9.xm2p.               p10hpfet           1.00 
      404 xalu1.xinv9.xm1n.               n10hpfet           1.00 
      405 xalu1.xinv9.xm2n.               n10hpfet           1.00 
      406 xalu1.xinv9.xm3n.               n10hpfet           1.00 
      407 xalu1.xinv9.xm4n.               n10hpfet           1.00 
      408 xalu1.xinv10.xm1p.              p10hpfet           1.00 
      409 xalu1.xinv10.xm2p.              p10hpfet           1.00 
      410 xalu1.xinv10.xm1n.              n10hpfet           1.00 
      411 xalu1.xinv10.xm2n.              n10hpfet           1.00 
      412 xalu1.xinv10.xm3n.              n10hpfet           1.00 
      413 xalu1.xinv10.xm4n.              n10hpfet           1.00 
      414 xalu1.xpa1.xadder1.             full_adder         1.00 
      415 xalu1.xpa1.xinv_buf1.           pfal_not_buff      1.00 
      416 xalu1.xpa1.xinv_buf2.           pfal_not_buff      1.00 
      417 xalu1.xpa1.xinv_buf3.           pfal_not_buff      1.00 
      418 xalu1.xpa1.xinv_buf4.           pfal_not_buff      1.00 
      419 xalu1.xpa1.xinv_buf5.           pfal_not_buff      1.00 
      420 xalu1.xpa1.xinv_buf6.           pfal_not_buff      1.00 
      421 xalu1.xpa1.xinv_buf7.           pfal_not_buff      1.00 
      422 xalu1.xpa1.xinv_buf8.           pfal_not_buff      1.00 
      423 xalu1.xpa1.xinv_buf9.           pfal_not_buff      1.00 
      424 xalu1.xpa1.xinv_buf10.          pfal_not_buff      1.00 
      425 xalu1.xpa1.xinv_buf11.          pfal_not_buff      1.00 
      426 xalu1.xpa1.xinv_buf12.          pfal_not_buff      1.00 
      427 xalu1.xpa1.xinv_buf13.          pfal_not_buff      1.00 
      428 xalu1.xpa1.xinv_buf14.          pfal_not_buff      1.00 
      429 xalu1.xpa1.xadder2.             full_adder         1.00 
      430 xalu1.xpa1.xinv_buf15.          pfal_not_buff      1.00 
      431 xalu1.xpa1.xinv_buf16.          pfal_not_buff      1.00 
      432 xalu1.xpa1.xinv_buf17.          pfal_not_buff      1.00 
      433 xalu1.xpa1.xinv_buf18.          pfal_not_buff      1.00 
      434 xalu1.xpa1.xinv_buf19.          pfal_not_buff      1.00 
      435 xalu1.xpa1.xinv_buf20.          pfal_not_buff      1.00 
      436 xalu1.xpa1.xinv_buf21.          pfal_not_buff      1.00 
      437 xalu1.xpa1.xinv_buf22.          pfal_not_buff      1.00 
      438 xalu1.xpa1.xinv_buf23.          pfal_not_buff      1.00 
      439 xalu1.xpa1.xinv_buf24.          pfal_not_buff      1.00 
      440 xalu1.xpa1.xinv_buf25.          pfal_not_buff      1.00 
      441 xalu1.xpa1.xinv_buf26.          pfal_not_buff      1.00 
      442 xalu1.xpa1.xinv_buf27.          pfal_not_buff      1.00 
      443 xalu1.xpa1.xadder3.             full_adder         1.00 
      444 xalu1.xpa1.xinv_buf28.          pfal_not_buff      1.00 
      445 xalu1.xpa1.xinv_buf29.          pfal_not_buff      1.00 
      446 xalu1.xpa1.xinv_buf30.          pfal_not_buff      1.00 
      447 xalu1.xpa1.xinv_buf31.          pfal_not_buff      1.00 
      448 xalu1.xpa1.xinv_buf32.          pfal_not_buff      1.00 
      449 xalu1.xpa1.xinv_buf33.          pfal_not_buff      1.00 
      450 xalu1.xpa1.xinv_buf34.          pfal_not_buff      1.00 
      451 xalu1.xpa1.xinv_buf35.          pfal_not_buff      1.00 
      452 xalu1.xpa1.xinv_buf36.          pfal_not_buff      1.00 
      453 xalu1.xpa1.xinv_buf37.          pfal_not_buff      1.00 
      454 xalu1.xpa1.xinv_buf38.          pfal_not_buff      1.00 
      455 xalu1.xpa1.xinv_buf39.          pfal_not_buff      1.00 
      456 xalu1.xpa1.xadder4.             full_adder         1.00 
      457 xalu1.xpa1.xinv_buf40.          pfal_not_buff      1.00 
      458 xalu1.xpa1.xinv_buf41.          pfal_not_buff      1.00 
      459 xalu1.xpa1.xinv_buf42.          pfal_not_buff      1.00 
      460 xalu1.xpa1.xinv_buf43.          pfal_not_buff      1.00 
      461 xalu1.xpa1.xinv_buf44.          pfal_not_buff      1.00 
      462 xalu1.xpa1.xinv_buf45.          pfal_not_buff      1.00 
      463 xalu1.xpa1.xinv_buf46.          pfal_not_buff      1.00 
      464 xalu1.xpa1.xinv_buf47.          pfal_not_buff      1.00 
      465 xalu1.xpa1.xinv_buf48.          pfal_not_buff      1.00 
      466 xalu1.xpa1.xinv_buf49.          pfal_not_buff      1.00 
      467 xalu1.xpa1.xinv_buf50.          pfal_not_buff      1.00 
      468 xalu1.xpa1.xadder5.             full_adder         1.00 
      469 xalu1.xpa1.xinv_buf51.          pfal_not_buff      1.00 
      470 xalu1.xpa1.xinv_buf52.          pfal_not_buff      1.00 
      471 xalu1.xpa1.xinv_buf53.          pfal_not_buff      1.00 
      472 xalu1.xpa1.xinv_buf54.          pfal_not_buff      1.00 
      473 xalu1.xpa1.xinv_buf55.          pfal_not_buff      1.00 
      474 xalu1.xpa1.xinv_buf56.          pfal_not_buff      1.00 
      475 xalu1.xpa1.xinv_buf57.          pfal_not_buff      1.00 
      476 xalu1.xpa1.xinv_buf58.          pfal_not_buff      1.00 
      477 xalu1.xpa1.xinv_buf59.          pfal_not_buff      1.00 
      478 xalu1.xpa1.xinv_buf60.          pfal_not_buff      1.00 
      479 xalu1.xpa1.xadder6.             full_adder         1.00 
      480 xalu1.xpa1.xinv_buf61.          pfal_not_buff      1.00 
      481 xalu1.xpa1.xinv_buf62.          pfal_not_buff      1.00 
      482 xalu1.xpa1.xinv_buf63.          pfal_not_buff      1.00 
      483 xalu1.xpa1.xinv_buf64.          pfal_not_buff      1.00 
      484 xalu1.xpa1.xinv_buf65.          pfal_not_buff      1.00 
      485 xalu1.xpa1.xinv_buf66.          pfal_not_buff      1.00 
      486 xalu1.xpa1.xinv_buf67.          pfal_not_buff      1.00 
      487 xalu1.xpa1.xinv_buf68.          pfal_not_buff      1.00 
      488 xalu1.xpa1.xinv_buf69.          pfal_not_buff      1.00 
      489 xalu1.xpa1.xadder7.             full_adder         1.00 
      490 xalu1.xpa1.xinv_buf70.          pfal_not_buff      1.00 
      491 xalu1.xpa1.xinv_buf71.          pfal_not_buff      1.00 
      492 xalu1.xpa1.xinv_buf72.          pfal_not_buff      1.00 
      493 xalu1.xpa1.xinv_buf73.          pfal_not_buff      1.00 
      494 xalu1.xpa1.xinv_buf74.          pfal_not_buff      1.00 
      495 xalu1.xpa1.xinv_buf75.          pfal_not_buff      1.00 
      496 xalu1.xpa1.xinv_buf76.          pfal_not_buff      1.00 
      497 xalu1.xpa1.xinv_buf77.          pfal_not_buff      1.00 
      498 xalu1.xpa1.xadder8.             full_adder         1.00 
      499 xalu1.xpa1.xinv_buf78.          pfal_not_buff      1.00 
      500 xalu1.xpa1.xinv_buf79.          pfal_not_buff      1.00 
      501 xalu1.xpa1.xinv_buf80.          pfal_not_buff      1.00 
      502 xalu1.xpa1.xinv_buf81.          pfal_not_buff      1.00 
      503 xalu1.xpa1.xinv_buf82.          pfal_not_buff      1.00 
      504 xalu1.xpa1.xinv_buf83.          pfal_not_buff      1.00 
      505 xalu1.xpa1.xinv_buf84.          pfal_not_buff      1.00 
      506 xalu1.xnand1.xm1p.              p10hpfet           1.00 
      507 xalu1.xnand1.xm2p.              p10hpfet           1.00 
      508 xalu1.xnand1.xm1n.              n10hpfet           1.00 
      509 xalu1.xnand1.xm2n.              n10hpfet           1.00 
      510 xalu1.xnand1.xm3n.              n10hpfet           1.00 
      511 xalu1.xnand1.xm4n.              n10hpfet           1.00 
      512 xalu1.xnand1.xm5n.              n10hpfet           1.00 
      513 xalu1.xnand1.xm6n.              n10hpfet           1.00 
      514 xalu1.xnand2.xm1p.              p10hpfet           1.00 
      515 xalu1.xnand2.xm2p.              p10hpfet           1.00 
      516 xalu1.xnand2.xm1n.              n10hpfet           1.00 
      517 xalu1.xnand2.xm2n.              n10hpfet           1.00 
      518 xalu1.xnand2.xm3n.              n10hpfet           1.00 
      519 xalu1.xnand2.xm4n.              n10hpfet           1.00 
      520 xalu1.xnand2.xm5n.              n10hpfet           1.00 
      521 xalu1.xnand2.xm6n.              n10hpfet           1.00 
      522 xalu1.xnand3.xm1p.              p10hpfet           1.00 
      523 xalu1.xnand3.xm2p.              p10hpfet           1.00 
      524 xalu1.xnand3.xm1n.              n10hpfet           1.00 
      525 xalu1.xnand3.xm2n.              n10hpfet           1.00 
      526 xalu1.xnand3.xm3n.              n10hpfet           1.00 
      527 xalu1.xnand3.xm4n.              n10hpfet           1.00 
      528 xalu1.xnand3.xm5n.              n10hpfet           1.00 
      529 xalu1.xnand3.xm6n.              n10hpfet           1.00 
      530 xalu1.xnand4.xm1p.              p10hpfet           1.00 
      531 xalu1.xnand4.xm2p.              p10hpfet           1.00 
      532 xalu1.xnand4.xm1n.              n10hpfet           1.00 
      533 xalu1.xnand4.xm2n.              n10hpfet           1.00 
      534 xalu1.xnand4.xm3n.              n10hpfet           1.00 
      535 xalu1.xnand4.xm4n.              n10hpfet           1.00 
      536 xalu1.xnand4.xm5n.              n10hpfet           1.00 
      537 xalu1.xnand4.xm6n.              n10hpfet           1.00 
      538 xalu1.xnand5.xm1p.              p10hpfet           1.00 
      539 xalu1.xnand5.xm2p.              p10hpfet           1.00 
      540 xalu1.xnand5.xm1n.              n10hpfet           1.00 
      541 xalu1.xnand5.xm2n.              n10hpfet           1.00 
      542 xalu1.xnand5.xm3n.              n10hpfet           1.00 
      543 xalu1.xnand5.xm4n.              n10hpfet           1.00 
      544 xalu1.xnand5.xm5n.              n10hpfet           1.00 
      545 xalu1.xnand5.xm6n.              n10hpfet           1.00 
      546 xalu1.xnand6.xm1p.              p10hpfet           1.00 
      547 xalu1.xnand6.xm2p.              p10hpfet           1.00 
      548 xalu1.xnand6.xm1n.              n10hpfet           1.00 
      549 xalu1.xnand6.xm2n.              n10hpfet           1.00 
      550 xalu1.xnand6.xm3n.              n10hpfet           1.00 
      551 xalu1.xnand6.xm4n.              n10hpfet           1.00 
      552 xalu1.xnand6.xm5n.              n10hpfet           1.00 
      553 xalu1.xnand6.xm6n.              n10hpfet           1.00 
      554 xalu1.xnand7.xm1p.              p10hpfet           1.00 
      555 xalu1.xnand7.xm2p.              p10hpfet           1.00 
      556 xalu1.xnand7.xm1n.              n10hpfet           1.00 
      557 xalu1.xnand7.xm2n.              n10hpfet           1.00 
      558 xalu1.xnand7.xm3n.              n10hpfet           1.00 
      559 xalu1.xnand7.xm4n.              n10hpfet           1.00 
      560 xalu1.xnand7.xm5n.              n10hpfet           1.00 
      561 xalu1.xnand7.xm6n.              n10hpfet           1.00 
      562 xalu1.xnand8.xm1p.              p10hpfet           1.00 
      563 xalu1.xnand8.xm2p.              p10hpfet           1.00 
      564 xalu1.xnand8.xm1n.              n10hpfet           1.00 
      565 xalu1.xnand8.xm2n.              n10hpfet           1.00 
      566 xalu1.xnand8.xm3n.              n10hpfet           1.00 
      567 xalu1.xnand8.xm4n.              n10hpfet           1.00 
      568 xalu1.xnand8.xm5n.              n10hpfet           1.00 
      569 xalu1.xnand8.xm6n.              n10hpfet           1.00 
      570 xalu1.xnor1.xm1p.               p10hpfet           1.00 
      571 xalu1.xnor1.xm2p.               p10hpfet           1.00 
      572 xalu1.xnor1.xm1n.               n10hpfet           1.00 
      573 xalu1.xnor1.xm2n.               n10hpfet           1.00 
      574 xalu1.xnor1.xm3n.               n10hpfet           1.00 
      575 xalu1.xnor1.xm4n.               n10hpfet           1.00 
      576 xalu1.xnor1.xm5n.               n10hpfet           1.00 
      577 xalu1.xnor1.xm6n.               n10hpfet           1.00 
      578 xalu1.xnor2.xm1p.               p10hpfet           1.00 
      579 xalu1.xnor2.xm2p.               p10hpfet           1.00 
      580 xalu1.xnor2.xm1n.               n10hpfet           1.00 
      581 xalu1.xnor2.xm2n.               n10hpfet           1.00 
      582 xalu1.xnor2.xm3n.               n10hpfet           1.00 
      583 xalu1.xnor2.xm4n.               n10hpfet           1.00 
      584 xalu1.xnor2.xm5n.               n10hpfet           1.00 
      585 xalu1.xnor2.xm6n.               n10hpfet           1.00 
      586 xalu1.xnor3.xm1p.               p10hpfet           1.00 
      587 xalu1.xnor3.xm2p.               p10hpfet           1.00 
      588 xalu1.xnor3.xm1n.               n10hpfet           1.00 
      589 xalu1.xnor3.xm2n.               n10hpfet           1.00 
      590 xalu1.xnor3.xm3n.               n10hpfet           1.00 
      591 xalu1.xnor3.xm4n.               n10hpfet           1.00 
      592 xalu1.xnor3.xm5n.               n10hpfet           1.00 
      593 xalu1.xnor3.xm6n.               n10hpfet           1.00 
      594 xalu1.xnor4.xm1p.               p10hpfet           1.00 
      595 xalu1.xnor4.xm2p.               p10hpfet           1.00 
      596 xalu1.xnor4.xm1n.               n10hpfet           1.00 
      597 xalu1.xnor4.xm2n.               n10hpfet           1.00 
      598 xalu1.xnor4.xm3n.               n10hpfet           1.00 
      599 xalu1.xnor4.xm4n.               n10hpfet           1.00 
      600 xalu1.xnor4.xm5n.               n10hpfet           1.00 
      601 xalu1.xnor4.xm6n.               n10hpfet           1.00 
      602 xalu1.xnor5.xm1p.               p10hpfet           1.00 
      603 xalu1.xnor5.xm2p.               p10hpfet           1.00 
      604 xalu1.xnor5.xm1n.               n10hpfet           1.00 
      605 xalu1.xnor5.xm2n.               n10hpfet           1.00 
      606 xalu1.xnor5.xm3n.               n10hpfet           1.00 
      607 xalu1.xnor5.xm4n.               n10hpfet           1.00 
      608 xalu1.xnor5.xm5n.               n10hpfet           1.00 
      609 xalu1.xnor5.xm6n.               n10hpfet           1.00 
      610 xalu1.xnor6.xm1p.               p10hpfet           1.00 
      611 xalu1.xnor6.xm2p.               p10hpfet           1.00 
      612 xalu1.xnor6.xm1n.               n10hpfet           1.00 
      613 xalu1.xnor6.xm2n.               n10hpfet           1.00 
      614 xalu1.xnor6.xm3n.               n10hpfet           1.00 
      615 xalu1.xnor6.xm4n.               n10hpfet           1.00 
      616 xalu1.xnor6.xm5n.               n10hpfet           1.00 
      617 xalu1.xnor6.xm6n.               n10hpfet           1.00 
      618 xalu1.xnor7.xm1p.               p10hpfet           1.00 
      619 xalu1.xnor7.xm2p.               p10hpfet           1.00 
      620 xalu1.xnor7.xm1n.               n10hpfet           1.00 
      621 xalu1.xnor7.xm2n.               n10hpfet           1.00 
      622 xalu1.xnor7.xm3n.               n10hpfet           1.00 
      623 xalu1.xnor7.xm4n.               n10hpfet           1.00 
      624 xalu1.xnor7.xm5n.               n10hpfet           1.00 
      625 xalu1.xnor7.xm6n.               n10hpfet           1.00 
      626 xalu1.xnor8.xm1p.               p10hpfet           1.00 
      627 xalu1.xnor8.xm2p.               p10hpfet           1.00 
      628 xalu1.xnor8.xm1n.               n10hpfet           1.00 
      629 xalu1.xnor8.xm2n.               n10hpfet           1.00 
      630 xalu1.xnor8.xm3n.               n10hpfet           1.00 
      631 xalu1.xnor8.xm4n.               n10hpfet           1.00 
      632 xalu1.xnor8.xm5n.               n10hpfet           1.00 
      633 xalu1.xnor8.xm6n.               n10hpfet           1.00 
      634 xalu1.xxor1.xm1p.               p10hpfet           1.00 
      635 xalu1.xxor1.xm2p.               p10hpfet           1.00 
      636 xalu1.xxor1.xm1n.               n10hpfet           1.00 
      637 xalu1.xxor1.xm2n.               n10hpfet           1.00 
      638 xalu1.xxor1.xm3n.               n10hpfet           1.00 
      639 xalu1.xxor1.xm4n.               n10hpfet           1.00 
      640 xalu1.xxor1.xm5n.               n10hpfet           1.00 
      641 xalu1.xxor1.xm6n.               n10hpfet           1.00 
      642 xalu1.xxor1.xm7n.               n10hpfet           1.00 
      643 xalu1.xxor1.xm8n.               n10hpfet           1.00 
      644 xalu1.xxor1.xm9n.               n10hpfet           1.00 
      645 xalu1.xxor1.xm10n.              n10hpfet           1.00 
      646 xalu1.xxor2.xm1p.               p10hpfet           1.00 
      647 xalu1.xxor2.xm2p.               p10hpfet           1.00 
      648 xalu1.xxor2.xm1n.               n10hpfet           1.00 
      649 xalu1.xxor2.xm2n.               n10hpfet           1.00 
      650 xalu1.xxor2.xm3n.               n10hpfet           1.00 
      651 xalu1.xxor2.xm4n.               n10hpfet           1.00 
      652 xalu1.xxor2.xm5n.               n10hpfet           1.00 
      653 xalu1.xxor2.xm6n.               n10hpfet           1.00 
      654 xalu1.xxor2.xm7n.               n10hpfet           1.00 
      655 xalu1.xxor2.xm8n.               n10hpfet           1.00 
      656 xalu1.xxor2.xm9n.               n10hpfet           1.00 
      657 xalu1.xxor2.xm10n.              n10hpfet           1.00 
      658 xalu1.xxor3.xm1p.               p10hpfet           1.00 
      659 xalu1.xxor3.xm2p.               p10hpfet           1.00 
      660 xalu1.xxor3.xm1n.               n10hpfet           1.00 
      661 xalu1.xxor3.xm2n.               n10hpfet           1.00 
      662 xalu1.xxor3.xm3n.               n10hpfet           1.00 
      663 xalu1.xxor3.xm4n.               n10hpfet           1.00 
      664 xalu1.xxor3.xm5n.               n10hpfet           1.00 
      665 xalu1.xxor3.xm6n.               n10hpfet           1.00 
      666 xalu1.xxor3.xm7n.               n10hpfet           1.00 
      667 xalu1.xxor3.xm8n.               n10hpfet           1.00 
      668 xalu1.xxor3.xm9n.               n10hpfet           1.00 
      669 xalu1.xxor3.xm10n.              n10hpfet           1.00 
      670 xalu1.xxor4.xm1p.               p10hpfet           1.00 
      671 xalu1.xxor4.xm2p.               p10hpfet           1.00 
      672 xalu1.xxor4.xm1n.               n10hpfet           1.00 
      673 xalu1.xxor4.xm2n.               n10hpfet           1.00 
      674 xalu1.xxor4.xm3n.               n10hpfet           1.00 
      675 xalu1.xxor4.xm4n.               n10hpfet           1.00 
      676 xalu1.xxor4.xm5n.               n10hpfet           1.00 
      677 xalu1.xxor4.xm6n.               n10hpfet           1.00 
      678 xalu1.xxor4.xm7n.               n10hpfet           1.00 
      679 xalu1.xxor4.xm8n.               n10hpfet           1.00 
      680 xalu1.xxor4.xm9n.               n10hpfet           1.00 
      681 xalu1.xxor4.xm10n.              n10hpfet           1.00 
      682 xalu1.xxor5.xm1p.               p10hpfet           1.00 
      683 xalu1.xxor5.xm2p.               p10hpfet           1.00 
      684 xalu1.xxor5.xm1n.               n10hpfet           1.00 
      685 xalu1.xxor5.xm2n.               n10hpfet           1.00 
      686 xalu1.xxor5.xm3n.               n10hpfet           1.00 
      687 xalu1.xxor5.xm4n.               n10hpfet           1.00 
      688 xalu1.xxor5.xm5n.               n10hpfet           1.00 
      689 xalu1.xxor5.xm6n.               n10hpfet           1.00 
      690 xalu1.xxor5.xm7n.               n10hpfet           1.00 
      691 xalu1.xxor5.xm8n.               n10hpfet           1.00 
      692 xalu1.xxor5.xm9n.               n10hpfet           1.00 
      693 xalu1.xxor5.xm10n.              n10hpfet           1.00 
      694 xalu1.xxor6.xm1p.               p10hpfet           1.00 
      695 xalu1.xxor6.xm2p.               p10hpfet           1.00 
      696 xalu1.xxor6.xm1n.               n10hpfet           1.00 
      697 xalu1.xxor6.xm2n.               n10hpfet           1.00 
      698 xalu1.xxor6.xm3n.               n10hpfet           1.00 
      699 xalu1.xxor6.xm4n.               n10hpfet           1.00 
      700 xalu1.xxor6.xm5n.               n10hpfet           1.00 
      701 xalu1.xxor6.xm6n.               n10hpfet           1.00 
      702 xalu1.xxor6.xm7n.               n10hpfet           1.00 
      703 xalu1.xxor6.xm8n.               n10hpfet           1.00 
      704 xalu1.xxor6.xm9n.               n10hpfet           1.00 
      705 xalu1.xxor6.xm10n.              n10hpfet           1.00 
      706 xalu1.xxor7.xm1p.               p10hpfet           1.00 
      707 xalu1.xxor7.xm2p.               p10hpfet           1.00 
      708 xalu1.xxor7.xm1n.               n10hpfet           1.00 
      709 xalu1.xxor7.xm2n.               n10hpfet           1.00 
      710 xalu1.xxor7.xm3n.               n10hpfet           1.00 
      711 xalu1.xxor7.xm4n.               n10hpfet           1.00 
      712 xalu1.xxor7.xm5n.               n10hpfet           1.00 
      713 xalu1.xxor7.xm6n.               n10hpfet           1.00 
      714 xalu1.xxor7.xm7n.               n10hpfet           1.00 
      715 xalu1.xxor7.xm8n.               n10hpfet           1.00 
      716 xalu1.xxor7.xm9n.               n10hpfet           1.00 
      717 xalu1.xxor7.xm10n.              n10hpfet           1.00 
      718 xalu1.xxor8.xm1p.               p10hpfet           1.00 
      719 xalu1.xxor8.xm2p.               p10hpfet           1.00 
      720 xalu1.xxor8.xm1n.               n10hpfet           1.00 
      721 xalu1.xxor8.xm2n.               n10hpfet           1.00 
      722 xalu1.xxor8.xm3n.               n10hpfet           1.00 
      723 xalu1.xxor8.xm4n.               n10hpfet           1.00 
      724 xalu1.xxor8.xm5n.               n10hpfet           1.00 
      725 xalu1.xxor8.xm6n.               n10hpfet           1.00 
      726 xalu1.xxor8.xm7n.               n10hpfet           1.00 
      727 xalu1.xxor8.xm8n.               n10hpfet           1.00 
      728 xalu1.xxor8.xm9n.               n10hpfet           1.00 
      729 xalu1.xxor8.xm10n.              n10hpfet           1.00 
      730 xalu1.xinv19.xm1p.              p10hpfet           1.00 
      731 xalu1.xinv19.xm2p.              p10hpfet           1.00 
      732 xalu1.xinv19.xm1n.              n10hpfet           1.00 
      733 xalu1.xinv19.xm2n.              n10hpfet           1.00 
      734 xalu1.xinv19.xm3n.              n10hpfet           1.00 
      735 xalu1.xinv19.xm4n.              n10hpfet           1.00 
      736 xalu1.xinv20.xm1p.              p10hpfet           1.00 
      737 xalu1.xinv20.xm2p.              p10hpfet           1.00 
      738 xalu1.xinv20.xm1n.              n10hpfet           1.00 
      739 xalu1.xinv20.xm2n.              n10hpfet           1.00 
      740 xalu1.xinv20.xm3n.              n10hpfet           1.00 
      741 xalu1.xinv20.xm4n.              n10hpfet           1.00 
      742 xalu1.xmux9.xm1p.               p10hpfet           1.00 
      743 xalu1.xmux9.xm2p.               p10hpfet           1.00 
      744 xalu1.xmux9.xm1n.               n10hpfet           1.00 
      745 xalu1.xmux9.xm2n.               n10hpfet           1.00 
      746 xalu1.xmux9.xm3n.               n10hpfet           1.00 
      747 xalu1.xmux9.xm4n.               n10hpfet           1.00 
      748 xalu1.xmux9.xm5n.               n10hpfet           1.00 
      749 xalu1.xmux9.xm6n.               n10hpfet           1.00 
      750 xalu1.xmux9.xm7n.               n10hpfet           1.00 
      751 xalu1.xmux9.xm8n.               n10hpfet           1.00 
      752 xalu1.xmux9.xm9n.               n10hpfet           1.00 
      753 xalu1.xmux9.xm10n.              n10hpfet           1.00 
      754 xalu1.xmux9.xm11n.              n10hpfet           1.00 
      755 xalu1.xmux9.xm12n.              n10hpfet           1.00 
      756 xalu1.xmux9.xm13n.              n10hpfet           1.00 
      757 xalu1.xmux9.xm14n.              n10hpfet           1.00 
      758 xalu1.xmux9.xm15n.              n10hpfet           1.00 
      759 xalu1.xmux9.xm16n.              n10hpfet           1.00 
      760 xalu1.xmux9.xm17n.              n10hpfet           1.00 
      761 xalu1.xmux9.xm18n.              n10hpfet           1.00 
      762 xalu1.xmux9.xm19n.              n10hpfet           1.00 
      763 xalu1.xmux9.xm20n.              n10hpfet           1.00 
      764 xalu1.xmux9.xm21n.              n10hpfet           1.00 
      765 xalu1.xmux9.xm22n.              n10hpfet           1.00 
      766 xalu1.xmux9.xm23n.              n10hpfet           1.00 
      767 xalu1.xmux9.xm24n.              n10hpfet           1.00 
      768 xalu1.xmux9.xm25n.              n10hpfet           1.00 
      769 xalu1.xmux9.xm26n.              n10hpfet           1.00 
      770 xalu1.xmux10.xm1p.              p10hpfet           1.00 
      771 xalu1.xmux10.xm2p.              p10hpfet           1.00 
      772 xalu1.xmux10.xm1n.              n10hpfet           1.00 
      773 xalu1.xmux10.xm2n.              n10hpfet           1.00 
      774 xalu1.xmux10.xm3n.              n10hpfet           1.00 
      775 xalu1.xmux10.xm4n.              n10hpfet           1.00 
      776 xalu1.xmux10.xm5n.              n10hpfet           1.00 
      777 xalu1.xmux10.xm6n.              n10hpfet           1.00 
      778 xalu1.xmux10.xm7n.              n10hpfet           1.00 
      779 xalu1.xmux10.xm8n.              n10hpfet           1.00 
      780 xalu1.xmux10.xm9n.              n10hpfet           1.00 
      781 xalu1.xmux10.xm10n.             n10hpfet           1.00 
      782 xalu1.xmux10.xm11n.             n10hpfet           1.00 
      783 xalu1.xmux10.xm12n.             n10hpfet           1.00 
      784 xalu1.xmux10.xm13n.             n10hpfet           1.00 
      785 xalu1.xmux10.xm14n.             n10hpfet           1.00 
      786 xalu1.xmux10.xm15n.             n10hpfet           1.00 
      787 xalu1.xmux10.xm16n.             n10hpfet           1.00 
      788 xalu1.xmux10.xm17n.             n10hpfet           1.00 
      789 xalu1.xmux10.xm18n.             n10hpfet           1.00 
      790 xalu1.xmux10.xm19n.             n10hpfet           1.00 
      791 xalu1.xmux10.xm20n.             n10hpfet           1.00 
      792 xalu1.xmux10.xm21n.             n10hpfet           1.00 
      793 xalu1.xmux10.xm22n.             n10hpfet           1.00 
      794 xalu1.xmux10.xm23n.             n10hpfet           1.00 
      795 xalu1.xmux10.xm24n.             n10hpfet           1.00 
      796 xalu1.xmux10.xm25n.             n10hpfet           1.00 
      797 xalu1.xmux10.xm26n.             n10hpfet           1.00 
      798 xalu1.xmux11.xm1p.              p10hpfet           1.00 
      799 xalu1.xmux11.xm2p.              p10hpfet           1.00 
      800 xalu1.xmux11.xm1n.              n10hpfet           1.00 
      801 xalu1.xmux11.xm2n.              n10hpfet           1.00 
      802 xalu1.xmux11.xm3n.              n10hpfet           1.00 
      803 xalu1.xmux11.xm4n.              n10hpfet           1.00 
      804 xalu1.xmux11.xm5n.              n10hpfet           1.00 
      805 xalu1.xmux11.xm6n.              n10hpfet           1.00 
      806 xalu1.xmux11.xm7n.              n10hpfet           1.00 
      807 xalu1.xmux11.xm8n.              n10hpfet           1.00 
      808 xalu1.xmux11.xm9n.              n10hpfet           1.00 
      809 xalu1.xmux11.xm10n.             n10hpfet           1.00 
      810 xalu1.xmux11.xm11n.             n10hpfet           1.00 
      811 xalu1.xmux11.xm12n.             n10hpfet           1.00 
      812 xalu1.xmux11.xm13n.             n10hpfet           1.00 
      813 xalu1.xmux11.xm14n.             n10hpfet           1.00 
      814 xalu1.xmux11.xm15n.             n10hpfet           1.00 
      815 xalu1.xmux11.xm16n.             n10hpfet           1.00 
      816 xalu1.xmux11.xm17n.             n10hpfet           1.00 
      817 xalu1.xmux11.xm18n.             n10hpfet           1.00 
      818 xalu1.xmux11.xm19n.             n10hpfet           1.00 
      819 xalu1.xmux11.xm20n.             n10hpfet           1.00 
      820 xalu1.xmux11.xm21n.             n10hpfet           1.00 
      821 xalu1.xmux11.xm22n.             n10hpfet           1.00 
      822 xalu1.xmux11.xm23n.             n10hpfet           1.00 
      823 xalu1.xmux11.xm24n.             n10hpfet           1.00 
      824 xalu1.xmux11.xm25n.             n10hpfet           1.00 
      825 xalu1.xmux11.xm26n.             n10hpfet           1.00 
      826 xalu1.xmux12.xm1p.              p10hpfet           1.00 
      827 xalu1.xmux12.xm2p.              p10hpfet           1.00 
      828 xalu1.xmux12.xm1n.              n10hpfet           1.00 
      829 xalu1.xmux12.xm2n.              n10hpfet           1.00 
      830 xalu1.xmux12.xm3n.              n10hpfet           1.00 
      831 xalu1.xmux12.xm4n.              n10hpfet           1.00 
      832 xalu1.xmux12.xm5n.              n10hpfet           1.00 
      833 xalu1.xmux12.xm6n.              n10hpfet           1.00 
      834 xalu1.xmux12.xm7n.              n10hpfet           1.00 
      835 xalu1.xmux12.xm8n.              n10hpfet           1.00 
      836 xalu1.xmux12.xm9n.              n10hpfet           1.00 
      837 xalu1.xmux12.xm10n.             n10hpfet           1.00 
      838 xalu1.xmux12.xm11n.             n10hpfet           1.00 
      839 xalu1.xmux12.xm12n.             n10hpfet           1.00 
      840 xalu1.xmux12.xm13n.             n10hpfet           1.00 
      841 xalu1.xmux12.xm14n.             n10hpfet           1.00 
      842 xalu1.xmux12.xm15n.             n10hpfet           1.00 
      843 xalu1.xmux12.xm16n.             n10hpfet           1.00 
      844 xalu1.xmux12.xm17n.             n10hpfet           1.00 
      845 xalu1.xmux12.xm18n.             n10hpfet           1.00 
      846 xalu1.xmux12.xm19n.             n10hpfet           1.00 
      847 xalu1.xmux12.xm20n.             n10hpfet           1.00 
      848 xalu1.xmux12.xm21n.             n10hpfet           1.00 
      849 xalu1.xmux12.xm22n.             n10hpfet           1.00 
      850 xalu1.xmux12.xm23n.             n10hpfet           1.00 
      851 xalu1.xmux12.xm24n.             n10hpfet           1.00 
      852 xalu1.xmux12.xm25n.             n10hpfet           1.00 
      853 xalu1.xmux12.xm26n.             n10hpfet           1.00 
      854 xalu1.xmux13.xm1p.              p10hpfet           1.00 
      855 xalu1.xmux13.xm2p.              p10hpfet           1.00 
      856 xalu1.xmux13.xm1n.              n10hpfet           1.00 
      857 xalu1.xmux13.xm2n.              n10hpfet           1.00 
      858 xalu1.xmux13.xm3n.              n10hpfet           1.00 
      859 xalu1.xmux13.xm4n.              n10hpfet           1.00 
      860 xalu1.xmux13.xm5n.              n10hpfet           1.00 
      861 xalu1.xmux13.xm6n.              n10hpfet           1.00 
      862 xalu1.xmux13.xm7n.              n10hpfet           1.00 
      863 xalu1.xmux13.xm8n.              n10hpfet           1.00 
      864 xalu1.xmux13.xm9n.              n10hpfet           1.00 
      865 xalu1.xmux13.xm10n.             n10hpfet           1.00 
      866 xalu1.xmux13.xm11n.             n10hpfet           1.00 
      867 xalu1.xmux13.xm12n.             n10hpfet           1.00 
      868 xalu1.xmux13.xm13n.             n10hpfet           1.00 
      869 xalu1.xmux13.xm14n.             n10hpfet           1.00 
      870 xalu1.xmux13.xm15n.             n10hpfet           1.00 
      871 xalu1.xmux13.xm16n.             n10hpfet           1.00 
      872 xalu1.xmux13.xm17n.             n10hpfet           1.00 
      873 xalu1.xmux13.xm18n.             n10hpfet           1.00 
      874 xalu1.xmux13.xm19n.             n10hpfet           1.00 
      875 xalu1.xmux13.xm20n.             n10hpfet           1.00 
      876 xalu1.xmux13.xm21n.             n10hpfet           1.00 
      877 xalu1.xmux13.xm22n.             n10hpfet           1.00 
      878 xalu1.xmux13.xm23n.             n10hpfet           1.00 
      879 xalu1.xmux13.xm24n.             n10hpfet           1.00 
      880 xalu1.xmux13.xm25n.             n10hpfet           1.00 
      881 xalu1.xmux13.xm26n.             n10hpfet           1.00 
      882 xalu1.xmux14.xm1p.              p10hpfet           1.00 
      883 xalu1.xmux14.xm2p.              p10hpfet           1.00 
      884 xalu1.xmux14.xm1n.              n10hpfet           1.00 
      885 xalu1.xmux14.xm2n.              n10hpfet           1.00 
      886 xalu1.xmux14.xm3n.              n10hpfet           1.00 
      887 xalu1.xmux14.xm4n.              n10hpfet           1.00 
      888 xalu1.xmux14.xm5n.              n10hpfet           1.00 
      889 xalu1.xmux14.xm6n.              n10hpfet           1.00 
      890 xalu1.xmux14.xm7n.              n10hpfet           1.00 
      891 xalu1.xmux14.xm8n.              n10hpfet           1.00 
      892 xalu1.xmux14.xm9n.              n10hpfet           1.00 
      893 xalu1.xmux14.xm10n.             n10hpfet           1.00 
      894 xalu1.xmux14.xm11n.             n10hpfet           1.00 
      895 xalu1.xmux14.xm12n.             n10hpfet           1.00 
      896 xalu1.xmux14.xm13n.             n10hpfet           1.00 
      897 xalu1.xmux14.xm14n.             n10hpfet           1.00 
      898 xalu1.xmux14.xm15n.             n10hpfet           1.00 
      899 xalu1.xmux14.xm16n.             n10hpfet           1.00 
      900 xalu1.xmux14.xm17n.             n10hpfet           1.00 
      901 xalu1.xmux14.xm18n.             n10hpfet           1.00 
      902 xalu1.xmux14.xm19n.             n10hpfet           1.00 
      903 xalu1.xmux14.xm20n.             n10hpfet           1.00 
      904 xalu1.xmux14.xm21n.             n10hpfet           1.00 
      905 xalu1.xmux14.xm22n.             n10hpfet           1.00 
      906 xalu1.xmux14.xm23n.             n10hpfet           1.00 
      907 xalu1.xmux14.xm24n.             n10hpfet           1.00 
      908 xalu1.xmux14.xm25n.             n10hpfet           1.00 
      909 xalu1.xmux14.xm26n.             n10hpfet           1.00 
      910 xalu1.xmux15.xm1p.              p10hpfet           1.00 
      911 xalu1.xmux15.xm2p.              p10hpfet           1.00 
      912 xalu1.xmux15.xm1n.              n10hpfet           1.00 
      913 xalu1.xmux15.xm2n.              n10hpfet           1.00 
      914 xalu1.xmux15.xm3n.              n10hpfet           1.00 
      915 xalu1.xmux15.xm4n.              n10hpfet           1.00 
      916 xalu1.xmux15.xm5n.              n10hpfet           1.00 
      917 xalu1.xmux15.xm6n.              n10hpfet           1.00 
      918 xalu1.xmux15.xm7n.              n10hpfet           1.00 
      919 xalu1.xmux15.xm8n.              n10hpfet           1.00 
      920 xalu1.xmux15.xm9n.              n10hpfet           1.00 
      921 xalu1.xmux15.xm10n.             n10hpfet           1.00 
      922 xalu1.xmux15.xm11n.             n10hpfet           1.00 
      923 xalu1.xmux15.xm12n.             n10hpfet           1.00 
      924 xalu1.xmux15.xm13n.             n10hpfet           1.00 
      925 xalu1.xmux15.xm14n.             n10hpfet           1.00 
      926 xalu1.xmux15.xm15n.             n10hpfet           1.00 
      927 xalu1.xmux15.xm16n.             n10hpfet           1.00 
      928 xalu1.xmux15.xm17n.             n10hpfet           1.00 
      929 xalu1.xmux15.xm18n.             n10hpfet           1.00 
      930 xalu1.xmux15.xm19n.             n10hpfet           1.00 
      931 xalu1.xmux15.xm20n.             n10hpfet           1.00 
      932 xalu1.xmux15.xm21n.             n10hpfet           1.00 
      933 xalu1.xmux15.xm22n.             n10hpfet           1.00 
      934 xalu1.xmux15.xm23n.             n10hpfet           1.00 
      935 xalu1.xmux15.xm24n.             n10hpfet           1.00 
      936 xalu1.xmux15.xm25n.             n10hpfet           1.00 
      937 xalu1.xmux15.xm26n.             n10hpfet           1.00 
      938 xalu1.xmux16.xm1p.              p10hpfet           1.00 
      939 xalu1.xmux16.xm2p.              p10hpfet           1.00 
      940 xalu1.xmux16.xm1n.              n10hpfet           1.00 
      941 xalu1.xmux16.xm2n.              n10hpfet           1.00 
      942 xalu1.xmux16.xm3n.              n10hpfet           1.00 
      943 xalu1.xmux16.xm4n.              n10hpfet           1.00 
      944 xalu1.xmux16.xm5n.              n10hpfet           1.00 
      945 xalu1.xmux16.xm6n.              n10hpfet           1.00 
      946 xalu1.xmux16.xm7n.              n10hpfet           1.00 
      947 xalu1.xmux16.xm8n.              n10hpfet           1.00 
      948 xalu1.xmux16.xm9n.              n10hpfet           1.00 
      949 xalu1.xmux16.xm10n.             n10hpfet           1.00 
      950 xalu1.xmux16.xm11n.             n10hpfet           1.00 
      951 xalu1.xmux16.xm12n.             n10hpfet           1.00 
      952 xalu1.xmux16.xm13n.             n10hpfet           1.00 
      953 xalu1.xmux16.xm14n.             n10hpfet           1.00 
      954 xalu1.xmux16.xm15n.             n10hpfet           1.00 
      955 xalu1.xmux16.xm16n.             n10hpfet           1.00 
      956 xalu1.xmux16.xm17n.             n10hpfet           1.00 
      957 xalu1.xmux16.xm18n.             n10hpfet           1.00 
      958 xalu1.xmux16.xm19n.             n10hpfet           1.00 
      959 xalu1.xmux16.xm20n.             n10hpfet           1.00 
      960 xalu1.xmux16.xm21n.             n10hpfet           1.00 
      961 xalu1.xmux16.xm22n.             n10hpfet           1.00 
      962 xalu1.xmux16.xm23n.             n10hpfet           1.00 
      963 xalu1.xmux16.xm24n.             n10hpfet           1.00 
      964 xalu1.xmux16.xm25n.             n10hpfet           1.00 
      965 xalu1.xmux16.xm26n.             n10hpfet           1.00 
      966 xalu1.xinv11.xm1p.              p10hpfet           1.00 
      967 xalu1.xinv11.xm2p.              p10hpfet           1.00 
      968 xalu1.xinv11.xm1n.              n10hpfet           1.00 
      969 xalu1.xinv11.xm2n.              n10hpfet           1.00 
      970 xalu1.xinv11.xm3n.              n10hpfet           1.00 
      971 xalu1.xinv11.xm4n.              n10hpfet           1.00 
      972 xalu1.xinv_buf1.xm1p.           p10hpfet           1.00 
      973 xalu1.xinv_buf1.xm2p.           p10hpfet           1.00 
      974 xalu1.xinv_buf1.xm1n.           n10hpfet           1.00 
      975 xalu1.xinv_buf1.xm2n.           n10hpfet           1.00 
      976 xalu1.xinv_buf1.xm3n.           n10hpfet           1.00 
      977 xalu1.xinv_buf1.xm4n.           n10hpfet           1.00 
      978 xalu1.xinv_buf2.xm1p.           p10hpfet           1.00 
      979 xalu1.xinv_buf2.xm2p.           p10hpfet           1.00 
      980 xalu1.xinv_buf2.xm1n.           n10hpfet           1.00 
      981 xalu1.xinv_buf2.xm2n.           n10hpfet           1.00 
      982 xalu1.xinv_buf2.xm3n.           n10hpfet           1.00 
      983 xalu1.xinv_buf2.xm4n.           n10hpfet           1.00 
      984 xalu1.xinv_buf3.xm1p.           p10hpfet           1.00 
      985 xalu1.xinv_buf3.xm2p.           p10hpfet           1.00 
      986 xalu1.xinv_buf3.xm1n.           n10hpfet           1.00 
      987 xalu1.xinv_buf3.xm2n.           n10hpfet           1.00 
      988 xalu1.xinv_buf3.xm3n.           n10hpfet           1.00 
      989 xalu1.xinv_buf3.xm4n.           n10hpfet           1.00 
      990 xalu1.xinv_buf4.xm1p.           p10hpfet           1.00 
      991 xalu1.xinv_buf4.xm2p.           p10hpfet           1.00 
      992 xalu1.xinv_buf4.xm1n.           n10hpfet           1.00 
      993 xalu1.xinv_buf4.xm2n.           n10hpfet           1.00 
      994 xalu1.xinv_buf4.xm3n.           n10hpfet           1.00 
      995 xalu1.xinv_buf4.xm4n.           n10hpfet           1.00 
      996 xalu1.xinv_buf5.xm1p.           p10hpfet           1.00 
      997 xalu1.xinv_buf5.xm2p.           p10hpfet           1.00 
      998 xalu1.xinv_buf5.xm1n.           n10hpfet           1.00 
      999 xalu1.xinv_buf5.xm2n.           n10hpfet           1.00 
     1000 xalu1.xinv_buf5.xm3n.           n10hpfet           1.00 
     1001 xalu1.xinv_buf5.xm4n.           n10hpfet           1.00 
     1002 xalu1.xinv_buf6.xm1p.           p10hpfet           1.00 
     1003 xalu1.xinv_buf6.xm2p.           p10hpfet           1.00 
     1004 xalu1.xinv_buf6.xm1n.           n10hpfet           1.00 
     1005 xalu1.xinv_buf6.xm2n.           n10hpfet           1.00 
     1006 xalu1.xinv_buf6.xm3n.           n10hpfet           1.00 
     1007 xalu1.xinv_buf6.xm4n.           n10hpfet           1.00 
     1008 xalu1.xinv_buf7.xm1p.           p10hpfet           1.00 
     1009 xalu1.xinv_buf7.xm2p.           p10hpfet           1.00 
     1010 xalu1.xinv_buf7.xm1n.           n10hpfet           1.00 
     1011 xalu1.xinv_buf7.xm2n.           n10hpfet           1.00 
     1012 xalu1.xinv_buf7.xm3n.           n10hpfet           1.00 
     1013 xalu1.xinv_buf7.xm4n.           n10hpfet           1.00 
     1014 xalu1.xinv_buf8.xm1p.           p10hpfet           1.00 
     1015 xalu1.xinv_buf8.xm2p.           p10hpfet           1.00 
     1016 xalu1.xinv_buf8.xm1n.           n10hpfet           1.00 
     1017 xalu1.xinv_buf8.xm2n.           n10hpfet           1.00 
     1018 xalu1.xinv_buf8.xm3n.           n10hpfet           1.00 
     1019 xalu1.xinv_buf8.xm4n.           n10hpfet           1.00 
     1020 xalu1.xinv12.xm1p.              p10hpfet           1.00 
     1021 xalu1.xinv12.xm2p.              p10hpfet           1.00 
     1022 xalu1.xinv12.xm1n.              n10hpfet           1.00 
     1023 xalu1.xinv12.xm2n.              n10hpfet           1.00 
     1024 xalu1.xinv12.xm3n.              n10hpfet           1.00 
     1025 xalu1.xinv12.xm4n.              n10hpfet           1.00 
     1026 xalu1.xinv_buf9.xm1p.           p10hpfet           1.00 
     1027 xalu1.xinv_buf9.xm2p.           p10hpfet           1.00 
     1028 xalu1.xinv_buf9.xm1n.           n10hpfet           1.00 
     1029 xalu1.xinv_buf9.xm2n.           n10hpfet           1.00 
     1030 xalu1.xinv_buf9.xm3n.           n10hpfet           1.00 
     1031 xalu1.xinv_buf9.xm4n.           n10hpfet           1.00 
     1032 xalu1.xinv_buf10.xm1p.          p10hpfet           1.00 
     1033 xalu1.xinv_buf10.xm2p.          p10hpfet           1.00 
     1034 xalu1.xinv_buf10.xm1n.          n10hpfet           1.00 
     1035 xalu1.xinv_buf10.xm2n.          n10hpfet           1.00 
     1036 xalu1.xinv_buf10.xm3n.          n10hpfet           1.00 
     1037 xalu1.xinv_buf10.xm4n.          n10hpfet           1.00 
     1038 xalu1.xinv_buf11.xm1p.          p10hpfet           1.00 
     1039 xalu1.xinv_buf11.xm2p.          p10hpfet           1.00 
     1040 xalu1.xinv_buf11.xm1n.          n10hpfet           1.00 
     1041 xalu1.xinv_buf11.xm2n.          n10hpfet           1.00 
     1042 xalu1.xinv_buf11.xm3n.          n10hpfet           1.00 
     1043 xalu1.xinv_buf11.xm4n.          n10hpfet           1.00 
     1044 xalu1.xinv_buf12.xm1p.          p10hpfet           1.00 
     1045 xalu1.xinv_buf12.xm2p.          p10hpfet           1.00 
     1046 xalu1.xinv_buf12.xm1n.          n10hpfet           1.00 
     1047 xalu1.xinv_buf12.xm2n.          n10hpfet           1.00 
     1048 xalu1.xinv_buf12.xm3n.          n10hpfet           1.00 
     1049 xalu1.xinv_buf12.xm4n.          n10hpfet           1.00 
     1050 xalu1.xinv_buf13.xm1p.          p10hpfet           1.00 
     1051 xalu1.xinv_buf13.xm2p.          p10hpfet           1.00 
     1052 xalu1.xinv_buf13.xm1n.          n10hpfet           1.00 
     1053 xalu1.xinv_buf13.xm2n.          n10hpfet           1.00 
     1054 xalu1.xinv_buf13.xm3n.          n10hpfet           1.00 
     1055 xalu1.xinv_buf13.xm4n.          n10hpfet           1.00 
     1056 xalu1.xinv_buf14.xm1p.          p10hpfet           1.00 
     1057 xalu1.xinv_buf14.xm2p.          p10hpfet           1.00 
     1058 xalu1.xinv_buf14.xm1n.          n10hpfet           1.00 
     1059 xalu1.xinv_buf14.xm2n.          n10hpfet           1.00 
     1060 xalu1.xinv_buf14.xm3n.          n10hpfet           1.00 
     1061 xalu1.xinv_buf14.xm4n.          n10hpfet           1.00 
     1062 xalu1.xinv_buf15.xm1p.          p10hpfet           1.00 
     1063 xalu1.xinv_buf15.xm2p.          p10hpfet           1.00 
     1064 xalu1.xinv_buf15.xm1n.          n10hpfet           1.00 
     1065 xalu1.xinv_buf15.xm2n.          n10hpfet           1.00 
     1066 xalu1.xinv_buf15.xm3n.          n10hpfet           1.00 
     1067 xalu1.xinv_buf15.xm4n.          n10hpfet           1.00 
     1068 xalu1.xinv_buf16.xm1p.          p10hpfet           1.00 
     1069 xalu1.xinv_buf16.xm2p.          p10hpfet           1.00 
     1070 xalu1.xinv_buf16.xm1n.          n10hpfet           1.00 
     1071 xalu1.xinv_buf16.xm2n.          n10hpfet           1.00 
     1072 xalu1.xinv_buf16.xm3n.          n10hpfet           1.00 
     1073 xalu1.xinv_buf16.xm4n.          n10hpfet           1.00 
     1074 xalu1.xinv13.xm1p.              p10hpfet           1.00 
     1075 xalu1.xinv13.xm2p.              p10hpfet           1.00 
     1076 xalu1.xinv13.xm1n.              n10hpfet           1.00 
     1077 xalu1.xinv13.xm2n.              n10hpfet           1.00 
     1078 xalu1.xinv13.xm3n.              n10hpfet           1.00 
     1079 xalu1.xinv13.xm4n.              n10hpfet           1.00 
     1080 xalu1.xinv_buf17.xm1p.          p10hpfet           1.00 
     1081 xalu1.xinv_buf17.xm2p.          p10hpfet           1.00 
     1082 xalu1.xinv_buf17.xm1n.          n10hpfet           1.00 
     1083 xalu1.xinv_buf17.xm2n.          n10hpfet           1.00 
     1084 xalu1.xinv_buf17.xm3n.          n10hpfet           1.00 
     1085 xalu1.xinv_buf17.xm4n.          n10hpfet           1.00 
     1086 xalu1.xinv_buf18.xm1p.          p10hpfet           1.00 
     1087 xalu1.xinv_buf18.xm2p.          p10hpfet           1.00 
     1088 xalu1.xinv_buf18.xm1n.          n10hpfet           1.00 
     1089 xalu1.xinv_buf18.xm2n.          n10hpfet           1.00 
     1090 xalu1.xinv_buf18.xm3n.          n10hpfet           1.00 
     1091 xalu1.xinv_buf18.xm4n.          n10hpfet           1.00 
     1092 xalu1.xinv_buf19.xm1p.          p10hpfet           1.00 
     1093 xalu1.xinv_buf19.xm2p.          p10hpfet           1.00 
     1094 xalu1.xinv_buf19.xm1n.          n10hpfet           1.00 
     1095 xalu1.xinv_buf19.xm2n.          n10hpfet           1.00 
     1096 xalu1.xinv_buf19.xm3n.          n10hpfet           1.00 
     1097 xalu1.xinv_buf19.xm4n.          n10hpfet           1.00 
     1098 xalu1.xinv_buf20.xm1p.          p10hpfet           1.00 
     1099 xalu1.xinv_buf20.xm2p.          p10hpfet           1.00 
     1100 xalu1.xinv_buf20.xm1n.          n10hpfet           1.00 
     1101 xalu1.xinv_buf20.xm2n.          n10hpfet           1.00 
     1102 xalu1.xinv_buf20.xm3n.          n10hpfet           1.00 
     1103 xalu1.xinv_buf20.xm4n.          n10hpfet           1.00 
     1104 xalu1.xinv_buf21.xm1p.          p10hpfet           1.00 
     1105 xalu1.xinv_buf21.xm2p.          p10hpfet           1.00 
     1106 xalu1.xinv_buf21.xm1n.          n10hpfet           1.00 
     1107 xalu1.xinv_buf21.xm2n.          n10hpfet           1.00 
     1108 xalu1.xinv_buf21.xm3n.          n10hpfet           1.00 
     1109 xalu1.xinv_buf21.xm4n.          n10hpfet           1.00 
     1110 xalu1.xinv_buf22.xm1p.          p10hpfet           1.00 
     1111 xalu1.xinv_buf22.xm2p.          p10hpfet           1.00 
     1112 xalu1.xinv_buf22.xm1n.          n10hpfet           1.00 
     1113 xalu1.xinv_buf22.xm2n.          n10hpfet           1.00 
     1114 xalu1.xinv_buf22.xm3n.          n10hpfet           1.00 
     1115 xalu1.xinv_buf22.xm4n.          n10hpfet           1.00 
     1116 xalu1.xinv_buf23.xm1p.          p10hpfet           1.00 
     1117 xalu1.xinv_buf23.xm2p.          p10hpfet           1.00 
     1118 xalu1.xinv_buf23.xm1n.          n10hpfet           1.00 
     1119 xalu1.xinv_buf23.xm2n.          n10hpfet           1.00 
     1120 xalu1.xinv_buf23.xm3n.          n10hpfet           1.00 
     1121 xalu1.xinv_buf23.xm4n.          n10hpfet           1.00 
     1122 xalu1.xinv_buf24.xm1p.          p10hpfet           1.00 
     1123 xalu1.xinv_buf24.xm2p.          p10hpfet           1.00 
     1124 xalu1.xinv_buf24.xm1n.          n10hpfet           1.00 
     1125 xalu1.xinv_buf24.xm2n.          n10hpfet           1.00 
     1126 xalu1.xinv_buf24.xm3n.          n10hpfet           1.00 
     1127 xalu1.xinv_buf24.xm4n.          n10hpfet           1.00 
     1128 xalu1.xinv14.xm1p.              p10hpfet           1.00 
     1129 xalu1.xinv14.xm2p.              p10hpfet           1.00 
     1130 xalu1.xinv14.xm1n.              n10hpfet           1.00 
     1131 xalu1.xinv14.xm2n.              n10hpfet           1.00 
     1132 xalu1.xinv14.xm3n.              n10hpfet           1.00 
     1133 xalu1.xinv14.xm4n.              n10hpfet           1.00 
     1134 xalu1.xinv_buf25.xm1p.          p10hpfet           1.00 
     1135 xalu1.xinv_buf25.xm2p.          p10hpfet           1.00 
     1136 xalu1.xinv_buf25.xm1n.          n10hpfet           1.00 
     1137 xalu1.xinv_buf25.xm2n.          n10hpfet           1.00 
     1138 xalu1.xinv_buf25.xm3n.          n10hpfet           1.00 
     1139 xalu1.xinv_buf25.xm4n.          n10hpfet           1.00 
     1140 xalu1.xinv_buf26.xm1p.          p10hpfet           1.00 
     1141 xalu1.xinv_buf26.xm2p.          p10hpfet           1.00 
     1142 xalu1.xinv_buf26.xm1n.          n10hpfet           1.00 
     1143 xalu1.xinv_buf26.xm2n.          n10hpfet           1.00 
     1144 xalu1.xinv_buf26.xm3n.          n10hpfet           1.00 
     1145 xalu1.xinv_buf26.xm4n.          n10hpfet           1.00 
     1146 xalu1.xinv_buf27.xm1p.          p10hpfet           1.00 
     1147 xalu1.xinv_buf27.xm2p.          p10hpfet           1.00 
     1148 xalu1.xinv_buf27.xm1n.          n10hpfet           1.00 
     1149 xalu1.xinv_buf27.xm2n.          n10hpfet           1.00 
     1150 xalu1.xinv_buf27.xm3n.          n10hpfet           1.00 
     1151 xalu1.xinv_buf27.xm4n.          n10hpfet           1.00 
     1152 xalu1.xinv_buf28.xm1p.          p10hpfet           1.00 
     1153 xalu1.xinv_buf28.xm2p.          p10hpfet           1.00 
     1154 xalu1.xinv_buf28.xm1n.          n10hpfet           1.00 
     1155 xalu1.xinv_buf28.xm2n.          n10hpfet           1.00 
     1156 xalu1.xinv_buf28.xm3n.          n10hpfet           1.00 
     1157 xalu1.xinv_buf28.xm4n.          n10hpfet           1.00 
     1158 xalu1.xinv_buf29.xm1p.          p10hpfet           1.00 
     1159 xalu1.xinv_buf29.xm2p.          p10hpfet           1.00 
     1160 xalu1.xinv_buf29.xm1n.          n10hpfet           1.00 
     1161 xalu1.xinv_buf29.xm2n.          n10hpfet           1.00 
     1162 xalu1.xinv_buf29.xm3n.          n10hpfet           1.00 
     1163 xalu1.xinv_buf29.xm4n.          n10hpfet           1.00 
     1164 xalu1.xinv_buf30.xm1p.          p10hpfet           1.00 
     1165 xalu1.xinv_buf30.xm2p.          p10hpfet           1.00 
[...]
  gam eff    -1.235e-29    -1.235e-29    -1.235e-29    -1.235e-29
  gm          3.699e-22     1.294e-18     0.000e+00     9.248e-19
  gds         1.230e-07     0.000e+00     0.000e+00     1.230e-07
  gmb         0.000e+00     0.000e+00     0.000e+00     0.000e+00
  cdtot       2.679e-21     2.679e-21     2.679e-21     2.679e-21
  cgtot       8.036e-21     8.036e-21     8.036e-21     8.036e-21
  cstot       2.679e-21     2.679e-21     2.679e-21     2.679e-21
  cbtot       0.000e+00     0.000e+00     0.000e+00     0.000e+00
  cgs         4.018e-21     4.018e-21     4.018e-21     4.018e-21
  cgd         4.018e-21     4.018e-21     4.018e-21     4.018e-21



 subckt      xalu1.xpa1    xalu1.xpa1    xalu1.xpa1    xalu1.xpa1
 element  2184:mn2      2185:mn2      2186:mp2      2187:mp2     
 model    1454:nfet     1454:nfet     1486:pfet     1486:pfet    
 region          Cutoff        Cutoff        Linear      Saturati
  id          0.000e+00     0.000e+00     2.039e-20     2.039e-20
  ibs         0.000e+00     0.000e+00     0.000e+00     0.000e+00
  ibd         0.000e+00     0.000e+00     0.000e+00     0.000e+00
  vgs        -6.130e-13    -6.130e-13    -1.912e-13    -1.912e-13
  vds         2.544e-13    -9.712e-14    -1.912e-13    -1.912e-13
  vbs        -1.058e-13    -1.058e-13     0.000e+00     0.000e+00
  vth         0.000e+00     0.000e+00     0.000e+00     0.000e+00
  vdsat       0.000e+00     0.000e+00     0.000e+00     0.000e+00
  beta       -1.235e-29    -1.235e-29    -1.235e-29    -1.235e-29
  gam eff    -1.235e-29    -1.235e-29    -1.235e-29    -1.235e-29
  gm          9.856e-19     3.696e-19     4.076e-19     4.076e-19
  gds         1.230e-07     0.000e+00     7.344e-08     7.344e-08
  gmb         0.000e+00     0.000e+00     0.000e+00     0.000e+00
  cdtot       2.679e-21     2.679e-21     2.417e-21     2.417e-21
  cgtot       8.036e-21     8.036e-21     7.250e-21     7.250e-21
  cstot       2.679e-21     2.679e-21     2.417e-21     2.417e-21
  cbtot       0.000e+00     0.000e+00     0.000e+00     0.000e+00
  cgs         4.018e-21     4.018e-21     3.625e-21     3.625e-21
  cgd         4.018e-21     4.018e-21     3.625e-21     3.625e-21



 subckt      xalu1.xpa1    xalu1.xpa1    xalu1.xpa1    xalu1.xpa1
 element  2188:mn2      2189:mn2      2190:mn2      2191:mn2     
 model    1488:nfet     1488:nfet     1488:nfet     1488:nfet    
 region          Cutoff      Saturati        Cutoff        Cutoff
  id         -6.160e-20    -6.160e-20     3.080e-20     3.080e-20
  ibs         0.000e+00     0.000e+00     0.000e+00     0.000e+00
  ibd         0.000e+00     0.000e+00     0.000e+00     0.000e+00
  vgs        -1.912e-13    -1.912e-13    -9.872e-19    -9.872e-19
  vds        -1.912e-13    -1.912e-13     1.912e-13     1.912e-13
  vbs         0.000e+00     0.000e+00     1.912e-13     1.912e-13
  vth         0.000e+00     0.000e+00     0.000e+00     0.000e+00
  vdsat       0.000e+00     0.000e+00     0.000e+00     0.000e+00
  beta       -1.235e-29    -1.235e-29    -1.235e-29    -1.235e-29
  gam eff    -1.235e-29    -1.235e-29    -1.235e-29    -1.235e-29
  gm          5.552e-19     5.552e-19     5.548e-19     5.548e-19
  gds         0.000e+00     0.000e+00     1.230e-07     1.230e-07
  gmb         0.000e+00     0.000e+00     0.000e+00     0.000e+00
  cdtot       2.679e-21     2.679e-21     2.679e-21     2.679e-21
  cgtot       8.036e-21     8.036e-21     8.036e-21     8.036e-21
  cstot       2.679e-21     2.679e-21     2.679e-21     2.679e-21
  cbtot       0.000e+00     0.000e+00     0.000e+00     0.000e+00
  cgs         4.018e-21     4.018e-21     4.018e-21     4.018e-21
  cgd         4.018e-21     4.018e-21     4.018e-21     4.018e-21



 subckt      xalu1.xpa1    xalu1.xpa1    xalu1.xpa1    xalu1.xpa1
 element  2192:mp2      2193:mp2      2194:mn2      2195:mn2     
 model    1486:pfet     1486:pfet     1488:nfet     1488:nfet    
 region          Linear      Saturati        Cutoff      Saturati
  id          0.000e+00     0.000e+00     0.000e+00     0.000e+00
  ibs         0.000e+00     0.000e+00     0.000e+00     0.000e+00
  ibd         0.000e+00     0.000e+00     0.000e+00     0.000e+00
  vgs        -9.477e-14    -9.477e-14    -9.477e-14    -9.477e-14
  vds        -9.477e-14    -9.477e-14    -9.477e-14    -9.477e-14
  vbs         0.000e+00     0.000e+00     0.000e+00     0.000e+00
  vth         0.000e+00     0.000e+00     0.000e+00     0.000e+00
  vdsat       0.000e+00     0.000e+00     0.000e+00     0.000e+00
  beta       -1.235e-29    -1.235e-29    -1.235e-29    -1.235e-29
  gam eff    -1.235e-29    -1.235e-29    -1.235e-29    -1.235e-29
  gm          2.447e-19     2.447e-19     1.848e-19     1.848e-19
  gds         7.344e-08     7.344e-08     0.000e+00     0.000e+00
  gmb         0.000e+00     0.000e+00     0.000e+00     0.000e+00
  cdtot       2.417e-21     2.417e-21     2.679e-21     2.679e-21
  cgtot       7.250e-21     7.250e-21     8.036e-21     8.036e-21
  cstot       2.417e-21     2.417e-21     2.679e-21     2.679e-21
  cbtot       0.000e+00     0.000e+00     0.000e+00     0.000e+00
  cgs         3.625e-21     3.625e-21     4.018e-21     4.018e-21
  cgd         3.625e-21     3.625e-21     4.018e-21     4.018e-21



 subckt      xalu1.xpa1    xalu1.xpa1    xalu1.xpa1    xalu1.xpa1
 element  2196:mn2      2197:mn2      2198:mp2      2199:mp2     
 model    1488:nfet     1488:nfet     1486:pfet     1486:pfet    
 region          Cutoff        Cutoff        Linear      Saturati
  id          0.000e+00     0.000e+00     0.000e+00     0.000e+00
  ibs         0.000e+00     0.000e+00     0.000e+00     0.000e+00
  ibd         0.000e+00     0.000e+00     0.000e+00     0.000e+00
  vgs        -9.441e-24    -1.218e-23    -9.477e-14    -9.477e-14
  vds         9.477e-14     9.477e-14    -9.477e-14    -9.477e-14
  vbs         9.477e-14     9.477e-14     0.000e+00     0.000e+00
  vth         0.000e+00     0.000e+00     0.000e+00     0.000e+00
  vdsat       0.000e+00     0.000e+00     0.000e+00     0.000e+00
  beta       -1.235e-29    -1.235e-29    -1.235e-29    -1.235e-29
  gam eff    -1.235e-29    -1.235e-29    -1.235e-29    -1.235e-29
  gm          1.848e-19     1.848e-19     2.447e-19     2.447e-19
  gds         1.230e-07     1.230e-07     7.344e-08     7.344e-08
  gmb         0.000e+00     0.000e+00     0.000e+00     0.000e+00
  cdtot       2.679e-21     2.679e-21     2.417e-21     2.417e-21
  cgtot       8.036e-21     8.036e-21     7.250e-21     7.250e-21
  cstot       2.679e-21     2.679e-21     2.417e-21     2.417e-21
  cbtot       0.000e+00     0.000e+00     0.000e+00     0.000e+00
  cgs         4.018e-21     4.018e-21     3.625e-21     3.625e-21
  cgd         4.018e-21     4.018e-21     3.625e-21     3.625e-21



 subckt      xalu1.xpa1    xalu1.xpa1    xalu1.xpa1    xalu1.xpa1
 element  2200:mn2      2201:mn2      2202:mn2      2203:mn2     
 model    1488:nfet     1488:nfet     1488:nfet     1488:nfet    
 region          Cutoff      Saturati        Cutoff        Cutoff
  id          0.000e+00     0.000e+00     0.000e+00     0.000e+00
  ibs         0.000e+00     0.000e+00     0.000e+00     0.000e+00
  ibd         0.000e+00     0.000e+00     0.000e+00     0.000e+00
  vgs        -9.477e-14    -9.477e-14    -9.024e-24    -1.176e-23
  vds        -9.477e-14    -9.477e-14     9.477e-14     9.477e-14
  vbs         0.000e+00     0.000e+00     9.477e-14     9.477e-14
  vth         0.000e+00     0.000e+00     0.000e+00     0.000e+00
  vdsat       0.000e+00     0.000e+00     0.000e+00     0.000e+00
  beta       -1.235e-29    -1.235e-29    -1.235e-29    -1.235e-29
  gam eff    -1.235e-29    -1.235e-29    -1.235e-29    -1.235e-29
  gm          1.848e-19     1.848e-19     1.848e-19     1.848e-19
  gds         0.000e+00     0.000e+00     1.230e-07     1.230e-07
  gmb         0.000e+00     0.000e+00     0.000e+00     0.000e+00
  cdtot       2.679e-21     2.679e-21     2.679e-21     2.679e-21
  cgtot       8.036e-21     8.036e-21     8.036e-21     8.036e-21
  cstot       2.679e-21     2.679e-21     2.679e-21     2.679e-21
  cbtot       0.000e+00     0.000e+00     0.000e+00     0.000e+00
  cgs         4.018e-21     4.018e-21     4.018e-21     4.018e-21
  cgd         4.018e-21     4.018e-21     4.018e-21     4.018e-21



 subckt      xalu1.xpa1    xalu1.xpa1    xalu1.xpa1    xalu1.xpa1
 element  2204:mp2      2205:mp2      2206:mn2      2207:mn2     
 model    1486:pfet     1486:pfet     1488:nfet     1488:nfet    
 region          Linear      Saturati        Cutoff      Saturati
  id          2.039e-20     2.039e-20    -3.080e-20    -3.080e-20
  ibs         0.000e+00     0.000e+00     0.000e+00     0.000e+00
  ibd         0.000e+00     0.000e+00     0.000e+00     0.000e+00
  vgs        -1.912e-13    -1.912e-13    -1.912e-13    -1.912e-13
  vds        -1.912e-13    -1.912e-13    -1.912e-13    -1.912e-13
  vbs         0.000e+00     0.000e+00     0.000e+00     0.000e+00
  vth         0.000e+00     0.000e+00     0.000e+00     0.000e+00
  vdsat       0.000e+00     0.000e+00     0.000e+00     0.000e+00
  beta       -1.235e-29    -1.235e-29    -1.235e-29    -1.235e-29
  gam eff    -1.235e-29    -1.235e-29    -1.235e-29    -1.235e-29
  gm          4.076e-19     4.076e-19     5.548e-19     5.548e-19
  gds         7.344e-08     7.344e-08     0.000e+00     0.000e+00
  gmb         0.000e+00     0.000e+00     0.000e+00     0.000e+00
  cdtot       2.417e-21     2.417e-21     2.679e-21     2.679e-21
  cgtot       7.250e-21     7.250e-21     8.036e-21     8.036e-21
  cstot       2.417e-21     2.417e-21     2.679e-21     2.679e-21
  cbtot       0.000e+00     0.000e+00     0.000e+00     0.000e+00
  cgs         3.625e-21     3.625e-21     4.018e-21     4.018e-21
  cgd         3.625e-21     3.625e-21     4.018e-21     4.018e-21



 subckt      xalu1.xpa1    xalu1.xpa1    xalu1.xpa1    xalu1.xpa1
 element  2208:mn2      2209:mn2      2210:mp2      2211:mp2     
 model    1488:nfet     1488:nfet     1486:pfet     1486:pfet    
 region          Cutoff        Cutoff      Saturati        Linear
  id          3.080e-20     3.080e-20     2.039e-20     2.039e-20
  ibs         0.000e+00     0.000e+00     0.000e+00     0.000e+00
  ibd         0.000e+00     0.000e+00     0.000e+00     0.000e+00
  vgs        -1.282e-18    -1.282e-18    -1.912e-13    -1.912e-13
  vds         1.912e-13     1.912e-13    -1.912e-13    -1.912e-13
  vbs         1.912e-13     1.912e-13     0.000e+00     0.000e+00
  vth         0.000e+00     0.000e+00     0.000e+00     0.000e+00
  vdsat       0.000e+00     0.000e+00     0.000e+00     0.000e+00
  beta       -1.235e-29    -1.235e-29    -1.235e-29    -1.235e-29
  gam eff    -1.235e-29    -1.235e-29    -1.235e-29    -1.235e-29
  gm          5.548e-19     5.548e-19     4.076e-19     4.076e-19
  gds         1.230e-07     1.230e-07     7.344e-08     7.344e-08
  gmb         0.000e+00     0.000e+00     0.000e+00     0.000e+00
  cdtot       2.679e-21     2.679e-21     2.417e-21     2.417e-21
  cgtot       8.036e-21     8.036e-21     7.250e-21     7.250e-21
  cstot       2.679e-21     2.679e-21     2.417e-21     2.417e-21
  cbtot       0.000e+00     0.000e+00     0.000e+00     0.000e+00
  cgs         4.018e-21     4.018e-21     3.625e-21     3.625e-21
  cgd         4.018e-21     4.018e-21     3.625e-21     3.625e-21



 subckt      xalu1.xpa1    xalu1.xpa1    xalu1.xpa1    xalu1.xpa1
 element  2212:mn2      2213:mn2      2214:mn2      2215:mn2     
 model    1488:nfet     1488:nfet     1488:nfet     1488:nfet    
 region        Saturati        Cutoff      Saturati      Saturati
  id         -3.080e-20    -3.080e-20     3.080e-20     3.080e-20
  ibs         0.000e+00     0.000e+00     0.000e+00     0.000e+00
  ibd         0.000e+00     0.000e+00     0.000e+00     0.000e+00
  vgs        -1.912e-13    -1.912e-13     2.201e-18     2.201e-18
  vds        -1.912e-13    -1.912e-13     1.912e-13     1.912e-13
  vbs         0.000e+00     0.000e+00     1.912e-13     1.912e-13
  vth         0.000e+00     0.000e+00     0.000e+00     0.000e+00
  vdsat       0.000e+00     0.000e+00     0.000e+00     0.000e+00
  beta       -1.235e-29    -1.235e-29    -1.235e-29    -1.235e-29
  gam eff    -1.235e-29    -1.235e-29    -1.235e-29    -1.235e-29
  gm          5.548e-19     5.548e-19     5.548e-19     5.548e-19
  gds         0.000e+00     0.000e+00     1.230e-07     1.230e-07
  gmb         0.000e+00     0.000e+00     0.000e+00     0.000e+00
  cdtot       2.679e-21     2.679e-21     2.679e-21     2.679e-21
  cgtot       8.036e-21     8.036e-21     8.036e-21     8.036e-21
  cstot       2.679e-21     2.679e-21     2.679e-21     2.679e-21
  cbtot       0.000e+00     0.000e+00     0.000e+00     0.000e+00
  cgs         4.018e-21     4.018e-21     4.018e-21     4.018e-21
  cgd         4.018e-21     4.018e-21     4.018e-21     4.018e-21



 subckt      xalu1.xpa1    xalu1.xpa1    xalu1.xpa1    xalu1.xpa1
 element  2216:mp2      2217:mp2      2218:mn2      2219:mn2     
 model    1486:pfet     1486:pfet     1488:nfet     1488:nfet    
 region          Linear      Saturati        Cutoff      Saturati
  id          0.000e+00     0.000e+00    -3.080e-20    -3.080e-20
  ibs         0.000e+00     0.000e+00     0.000e+00     0.000e+00
  ibd         0.000e+00     0.000e+00     0.000e+00     0.000e+00
  vgs        -2.876e-13    -2.876e-13    -2.876e-13    -2.876e-13
  vds        -2.876e-13    -2.876e-13    -2.876e-13    -2.876e-13
  vbs         0.000e+00     0.000e+00     0.000e+00     0.000e+00
  vth         0.000e+00     0.000e+00     0.000e+00     0.000e+00
  vdsat       0.000e+00     0.000e+00     0.000e+00     0.000e+00
  beta       -1.235e-29    -1.235e-29    -1.235e-29    -1.235e-29
  gam eff    -1.235e-29    -1.235e-29    -1.235e-29    -1.235e-29
  gm          6.117e-19     6.117e-19     8.628e-19     8.628e-19
  gds         7.344e-08     7.344e-08     0.000e+00     0.000e+00
  gmb         0.000e+00     0.000e+00     0.000e+00     0.000e+00
  cdtot       2.417e-21     2.417e-21     2.679e-21     2.679e-21
  cgtot       7.250e-21     7.250e-21     8.036e-21     8.036e-21
  cstot       2.417e-21     2.417e-21     2.679e-21     2.679e-21
  cbtot       0.000e+00     0.000e+00     0.000e+00     0.000e+00
  cgs         3.625e-21     3.625e-21     4.018e-21     4.018e-21
  cgd         3.625e-21     3.625e-21     4.018e-21     4.018e-21



 subckt      xalu1.xpa1    xalu1.xpa1    xalu1.xpa1    xalu1.xpa1
 element  2220:mn2      2221:mn2      2222:mp2      2223:mp2     
 model    1488:nfet     1488:nfet     1486:pfet     1486:pfet    
 region          Cutoff        Cutoff        Linear      Saturati
  id          3.080e-20     3.080e-20     0.000e+00     0.000e+00
  ibs         0.000e+00     0.000e+00     0.000e+00     0.000e+00
  ibd         0.000e+00     0.000e+00     0.000e+00     0.000e+00
  vgs        -3.004e-18    -3.004e-18    -2.876e-13    -2.876e-13
  vds         2.876e-13     2.876e-13    -2.876e-13    -2.876e-13
  vbs         2.876e-13     2.876e-13     0.000e+00     0.000e+00
  vth         0.000e+00     0.000e+00     0.000e+00     0.000e+00
  vdsat       0.000e+00     0.000e+00     0.000e+00     0.000e+00
  beta       -1.235e-29    -1.235e-29    -1.235e-29    -1.235e-29
  gam eff    -1.235e-29    -1.235e-29    -1.235e-29    -1.235e-29
  gm          8.628e-19     8.628e-19     6.117e-19     6.117e-19
  gds         1.230e-07     1.230e-07     7.344e-08     7.344e-08
  gmb         0.000e+00     0.000e+00     0.000e+00     0.000e+00
  cdtot       2.679e-21     2.679e-21     2.417e-21     2.417e-21
  cgtot       8.036e-21     8.036e-21     7.250e-21     7.250e-21
  cstot       2.679e-21     2.679e-21     2.417e-21     2.417e-21
  cbtot       0.000e+00     0.000e+00     0.000e+00     0.000e+00
  cgs         4.018e-21     4.018e-21     3.625e-21     3.625e-21
  cgd         4.018e-21     4.018e-21     3.625e-21     3.625e-21



 subckt      xalu1.xpa1    xalu1.xpa1    xalu1.xpa1    xalu1.xpa1
 element  2224:mn2      2225:mn2      2226:mn2      2227:mn2     
 model    1488:nfet     1488:nfet     1488:nfet     1488:nfet    
 region          Cutoff      Saturati        Linear        Linear
  id         -3.080e-20    -3.080e-20     6.160e-20     6.160e-20
  ibs         0.000e+00     0.000e+00     0.000e+00     0.000e+00
  ibd         0.000e+00     0.000e+00     0.000e+00     0.000e+00
  vgs        -2.876e-13    -2.876e-13     6.164e-13     6.164e-13
  vds        -2.876e-13    -2.876e-13     2.876e-13     2.876e-13
  vbs         0.000e+00     0.000e+00     2.876e-13     2.876e-13
  vth         0.000e+00     0.000e+00     0.000e+00     0.000e+00
  vdsat       0.000e+00     0.000e+00     0.000e+00     0.000e+00
  beta       -1.235e-29    -1.235e-29    -1.235e-29    -1.235e-29
  gam eff    -1.235e-29    -1.235e-29    -1.235e-29    -1.235e-29
  gm          8.628e-19     8.628e-19     9.864e-19     9.864e-19
  gds         0.000e+00     0.000e+00     1.230e-07     1.230e-07
  gmb         0.000e+00     0.000e+00     0.000e+00     0.000e+00
  cdtot       2.679e-21     2.679e-21     2.679e-21     2.679e-21
  cgtot       8.036e-21     8.036e-21     8.036e-21     8.036e-21
  cstot       2.679e-21     2.679e-21     2.679e-21     2.679e-21
  cbtot       0.000e+00     0.000e+00     0.000e+00     0.000e+00
  cgs         4.018e-21     4.018e-21     4.018e-21     4.018e-21
  cgd         4.018e-21     4.018e-21     4.018e-21     4.018e-21



 ******  
 init

  ******  transient analysis tnom=  25.000 temp=  25.000 *****
   itotal1= -4.0855E-06  from=  8.0000E-09     to=  5.0000E-08
   vtotal1=  5.0000E-01  from=  8.0000E-09     to=  5.0000E-08
   etotal1=  2.0428E-06
   p_avg1= -4.3434E-06  from=  8.0000E-09     to=  5.0000E-08
   itotal2= -2.7624E-06  from=  8.0000E-09     to=  5.0000E-08
   vtotal2=  5.0000E-01  from=  8.0000E-09     to=  5.0000E-08
   etotal2=  1.3812E-06
   p_avg2= -2.8675E-06  from=  8.0000E-09     to=  5.0000E-08
   itotal3= -2.1218E-06  from=  8.0000E-09     to=  5.0000E-08
   vtotal3=  5.0000E-01  from=  8.0000E-09     to=  5.0000E-08
   etotal3=  1.0609E-06
   p_avg3= -2.0399E-06  from=  8.0000E-09     to=  5.0000E-08
   itotal4= -2.0283E-06  from=  8.0000E-09     to=  5.0000E-08
   vtotal4=  5.0000E-01  from=  8.0000E-09     to=  5.0000E-08
   etotal4=  1.0142E-06
   p_avg4= -1.9303E-06  from=  8.0000E-09     to=  5.0000E-08
   etotal=  5.4991E-06

          ***** job concluded
1****** HSPICE -- F-2011.09 32-BIT (Sep  5 2011) winnt ******                   
 ******  
 init

  ******  job statistics summary tnom=  25.000 temp=  25.000 *****

  ******  HSPICE Threads Information  ******

  Command Line Threads Count :     1
  Available CPU Count        :     4
  Actual Threads Count       :     1


  ******  Circuit Statistics  ******
  # nodes       =    5078 # elements   =    2272
  # resistors   =     219 # capacitors =       0 # inductors   =       0
  # mutual_inds =       0 # vccs       =       0 # vcvs        =       0
  # cccs        =       0 # ccvs       =       0 # volt_srcs   =      45
  # curr_srcs   =       0 # diodes     =       0 # bjts        =       0
  # jfets       =       0 # mosfets    =    2008 # U elements  =       0
  # T elements  =       0 # W elements =       0 # B elements  =       0
  # S elements  =       0 # P elements =       0 # va device   =       0
  # vector_srcs =       0


  ******  Runtime Statistics (seconds)  ******

  analysis           time    # points   tot. iter  conv.iter
  op point           3.69           1           9
  transient        209.42          52        4638        1086 rev=        95
  readin             0.30
  errchk             0.67
  setup              0.16
  output             0.00


           peak memory used         88.88 megabytes
           total cpu time          214.17 seconds
           total elapsed time      220.14 seconds
           job started at     16:48:22 02/10/2016
           job ended   at     16:52:02 02/10/2016


  lic: Release hspice token(s) 
